[General]
debug-on-errors = true

network = scenario
sim-time-limit = 6000s
print-undisposed = false
seed-0-mt = 123

cmdenv-express-mode = true
cmdenv-autoflush = true
cmdenv-status-frequency = 10000000s

#tkenv-default-run = 1

ned-path = ../../base;../../modules;../../examples;

tkenv-image-path = bitmaps
**.debug = true
**.coreDebug = false

*.playgroundSizeX = 10672m
*.playgroundSizeY = 7105m
*.playgroundSizeZ = 10000m
*.world.useTorus = false
*.world.use2D = false

# Car::TraCIMobility
*.node[*].mobility.accidentCount = 0
*.node[*].mobility.accidentStart = -1s
*.node[*].mobility.accidentDuration = -1s
*.node[*].mobility.accidentInterval = -1s

# TraCIScenarioManagerLaunchd
*.manager.updateInterval = 1s
*.manager.host = "localhost"
*.manager.port = 9999
*.manager.moduleType = "org.mixim.examples.traci_launchd.Car"
*.manager.moduleName = "node"
*.manager.moduleDisplayString = "i=misc/node2_vs"
*.manager.autoShutdown = true
*.manager.margin = 25
*.manager.launchConfig = xmldoc("sumo-launchd.launch.xml")

##########################################################
#			         channel parameters                  #
##########################################################
*.connectionManager.sendDirect = false
*.connectionManager.pMax = 100mW
*.connectionManager.sat = -84dBm
*.connectionManager.alpha = 3.0
*.connectionManager.carrierFrequency = 2.412e+9Hz


################ PhyLayer parameters #####################
*.node[*].nic.phy.usePropagationDelay = false
*.node[*].nic.phy.thermalNoise = -100dBm
*.node[*].nic.phy.useThermalNoise = true
        
*.node[*].nic.phy.analogueModels = xmldoc("config.xml")
*.node[*].nic.phy.decider = xmldoc("config.xml")

*.node[*].nic.phy.timeRXToTX = 0.00021s
*.node[*].nic.phy.timeRXToSleep = 0.000031s

*.node[*].nic.phy.timeTXToRX = 0.00012s
*.node[*].nic.phy.timeTXToSleep = 0.000032s

*.node[*].nic.phy.timeSleepToRX = 0.000102s
*.node[*].nic.phy.timeSleepToTX = 0.000203s

*.node[*].nic.phy.sensitivity = -80dBm
*.node[*].nic.phy.maxTXPower = 100.0mW

*.node[*].nic.phy.initialRadioState = 0

################ MAC layer parameters ####################
*.node[*].nic.mac.queueLength = 5
*.node[*].nic.mac.headerLength = 24bit
*.node[*].nic.mac.slotDuration = 0.04s
*.node[*].nic.mac.difs = 0.0005s
*.node[*].nic.mac.maxTxAttempts = 14
*.node[*].nic.mac.defaultChannel = 0
*.node[*].nic.mac.bitrate = 15360bps
*.node[*].nic.mac.contentionWindow = 20
*.node[*].nic.mac.txPower = 100mW  # [mW]

################ NETW layer parameters ####################
*.node[*].net.isSwitch = false
*.node[*].net.maxTtl = 3
*.node[*].net.boredTime = 0.5

**.udpapp.*.vector-recording = true
**.vector-recording = true

*.node[*].nic.phy.useThermalNoise = true
*.node[*].applType = "BurstApplLayer"
*.node[*].mobType = "TraCIMobility"
*.node[*].netwType = "BaseNetwLayer"
*.node[*].appl.debug = false
*.node[*].appl.headerLength = 512bit
*.node[*].net.debug = false
*.node[*].net.stats = false
*.node[*].net.headerLength = 32bit
*.node[*].appl.burstSize = 3
*.node[*].mobility.debug = false
*.node[*].mobility.speed = 1mps
*.node[*].mobility.updateInterval = 0.1s
*.node[*].mobility.x = 0
*.node[*].mobility.y = 0
*.node[*].mobility.z = 0

[Config config1]
*.node[10].mobility.accidentCount = 1
*.node[10].mobility.accidentStart = 115s
*.node[10].mobility.accidentDuration = 240s

