<?xml version="1.0" encoding="UTF-8"?>
<!--
Luxembourg SUMO Traffic (LuST) Scenario
This project is licensed under the terms of the MIT license.
Author: Lara CODECA [codeca@gmail.com]
-->

<additional xmlns:xsi="http://www.w3.org/2001/XMLSchema-instance" xsi:noNamespaceSchemaLocation="http://sumo.dlr.de/xsd/additional_file.xsd">
    <location netOffset="-285448.66,-5492398.13" convBoundary="0.00,0.00,13613.76,11455.04" origBoundary="6.030969,49.549099,6.216758,49.652578" projParameter="+proj=utm +zone=32 +ellps=WGS84 +datum=WGS84 +units=m +no_defs"/>

    <poly id="-146876" type="building" color="red" fill="1" layer="2.00" shape="4832.24,6082.07 4872.51,6078.28 4876.19,6108.74 4835.92,6112.53 4832.24,6082.07"/>
    <poly id="-146878" type="building" color="red" fill="1" layer="2.00" shape="4815.60,6166.73 4786.37,6175.24 4789.64,6186.41 4818.86,6177.90 4815.60,6166.73"/>
    <poly id="-146880" type="building" color="red" fill="1" layer="2.00" shape="9273.83,7547.18 9254.66,7541.35 9258.27,7529.56 9277.44,7535.39 9273.83,7547.18"/>
    <poly id="-146882" type="building" color="red" fill="1" layer="2.00" shape="8759.96,2577.85 8762.22,2581.05 8766.47,2578.07 8775.03,2590.17 8767.79,2595.26 8763.05,2588.54 8759.22,2591.24 8753.14,2582.65 8759.96,2577.85"/>
    <poly id="-146884" type="building" color="red" fill="1" layer="2.00" shape="4514.38,5782.31 4533.57,5818.04 4544.09,5812.41 4522.81,5772.81 4515.76,5776.58 4517.84,5780.46 4514.38,5782.31"/>
    <poly id="-146886" type="building" color="red" fill="1" layer="2.00" shape="8287.31,3655.37 8301.87,3662.24 8304.88,3655.89 8290.32,3649.03 8287.31,3655.37"/>
    <poly id="-146888" type="building" color="red" fill="1" layer="2.00" shape="5701.08,6540.00 5706.95,6529.16 5708.59,6530.05 5710.30,6526.90 5715.80,6529.87 5714.14,6532.93 5718.00,6535.01 5717.57,6535.82 5719.19,6536.69 5716.16,6542.31 5714.62,6541.48 5712.19,6545.98 5701.08,6540.00"/>
    <poly id="-146890" type="building" color="red" fill="1" layer="2.00" shape="6302.14,6697.39 6307.61,6729.08 6318.04,6727.29 6313.41,6700.48 6316.95,6699.87 6316.02,6694.49 6302.14,6697.39"/>
    <poly id="-146892" type="building" color="red" fill="1" layer="2.00" shape="7716.97,8557.47 7699.60,8556.81 7699.92,8548.32 7717.30,8548.97 7716.97,8557.47"/>
    <poly id="-146894" type="building" color="red" fill="1" layer="2.00" shape="8434.73,4950.54 8445.22,4952.43 8448.49,4938.18 8438.42,4936.38 8437.34,4936.17 8434.73,4950.54"/>
    <poly id="-146896" type="building" color="red" fill="1" layer="2.00" shape="7617.82,6720.75 7629.52,6723.75 7632.28,6716.14 7621.89,6712.98 7621.07,6712.72 7617.82,6720.75"/>
    <poly id="-146898" type="building" color="red" fill="1" layer="2.00" shape="5310.41,6490.10 5310.20,6498.92 5317.91,6499.11 5317.82,6502.78 5322.49,6502.89 5322.79,6490.39 5310.41,6490.10"/>
    <poly id="-146900" type="building" color="red" fill="1" layer="2.00" shape="5685.36,7910.08 5685.51,7913.06 5692.18,7912.72 5692.02,7909.65 5685.36,7910.08"/>
    <poly id="-146902" type="building" color="red" fill="1" layer="2.00" shape="4889.40,6958.97 4890.73,6970.38 4902.60,6969.01 4901.29,6957.59 4889.40,6958.97"/>
    <poly id="-146904" type="building" color="red" fill="1" layer="2.00" shape="4865.83,6245.62 4871.07,6275.20 4883.23,6273.06 4878.00,6243.47 4865.83,6245.62"/>
    <poly id="-146906" type="building" color="red" fill="1" layer="2.00" shape="7691.42,5184.78 7687.46,5181.66 7685.65,5181.34 7688.67,5168.38 7697.67,5169.39 7701.60,5170.87 7702.55,5174.60 7704.04,5181.55 7691.42,5184.78"/>
    <poly id="-146908" type="building" color="red" fill="1" layer="2.00" shape="9058.59,10180.57 9068.25,10180.41 9067.96,10164.12 9061.21,10164.24 9061.29,10168.48 9052.74,10168.64 9052.89,10176.96 9058.53,10176.87 9058.59,10180.57"/>
    <poly id="-146910" type="building" color="red" fill="1" layer="2.00" shape="7593.90,9411.11 7605.01,9408.08 7598.39,9383.60 7588.86,9391.29 7593.90,9411.11"/>
    <poly id="-146912" type="building" color="red" fill="1" layer="2.00" shape="8575.73,4974.79 8585.23,4975.98 8585.05,4977.41 8592.40,4978.33 8592.20,4979.96 8600.32,4980.97 8600.05,4983.16 8609.96,4984.40 8611.71,4970.49 8602.84,4969.38 8603.16,4966.80 8595.06,4965.80 8595.41,4963.03 8587.26,4962.02 8587.40,4960.90 8577.63,4959.68 8575.73,4974.79"/>
    <poly id="-146914" type="building" color="red" fill="1" layer="2.00" shape="7232.90,6937.92 7227.76,6937.40 7225.28,6950.14 7230.45,6951.16 7232.90,6937.92"/>
    <poly id="-146916" type="building" color="red" fill="1" layer="2.00" shape="1351.51,7035.17 1365.93,7036.88 1367.83,7020.86 1353.41,7019.17 1351.51,7035.17"/>
    <poly id="-146918" type="building" color="red" fill="1" layer="2.00" shape="8177.67,9410.41 8170.01,9402.72 8177.02,9395.77 8184.68,9403.45 8177.67,9410.41"/>
    <poly id="-146920" type="building" color="red" fill="1" layer="2.00" shape="9027.86,6412.22 9041.54,6418.66 9047.12,6406.87 9041.04,6404.01 9052.27,6380.33 9044.67,6376.75 9027.86,6412.22"/>
    <poly id="-146922" type="building" color="red" fill="1" layer="2.00" shape="1216.30,7439.52 1217.38,7432.34 1194.96,7428.98 1193.87,7436.17 1216.30,7439.52"/>
    <poly id="-146924" type="building" color="red" fill="1" layer="2.00" shape="6771.67,7813.42 6761.95,7819.70 6777.87,7835.45 6780.75,7833.34 6786.69,7827.44 6778.89,7821.95 6771.67,7813.42"/>
    <poly id="-146926" type="building" color="red" fill="1" layer="2.00" shape="4926.43,6781.46 4944.49,6782.87 4945.45,6770.54 4927.39,6769.15 4926.43,6781.46"/>
    <poly id="-146928" type="building" color="red" fill="1" layer="2.00" shape="5915.07,4470.06 5918.77,4456.59 5913.78,4455.22 5910.07,4468.70 5915.07,4470.06"/>
    <poly id="-146930" type="building" color="red" fill="1" layer="2.00" shape="6677.31,7390.49 6690.75,7378.43 6694.58,7378.33 6697.96,7380.82 6697.59,7385.02 6683.67,7397.10 6677.31,7390.49"/>
    <poly id="-146932" type="building" color="red" fill="1" layer="2.00" shape="7554.54,5244.74 7553.96,5244.21 7551.25,5247.56 7543.44,5257.98 7547.82,5261.28 7556.95,5269.78 7563.06,5262.61 7569.01,5255.30 7554.54,5244.74"/>
    <poly id="-146934" type="building" color="red" fill="1" layer="2.00" shape="1402.89,6244.21 1390.76,6240.39 1384.09,6261.46 1396.22,6265.28 1402.89,6244.21"/>
    <poly id="-146936" type="building" color="red" fill="1" layer="2.00" shape="9009.87,7782.12 9025.38,7787.64 9029.57,7775.94 9014.07,7770.41 9009.87,7782.12"/>
    <poly id="-146938" type="building" color="red" fill="1" layer="2.00" shape="2493.68,8099.84 2483.15,8100.40 2483.16,8096.72 2483.16,8088.46 2493.53,8088.05 2493.68,8099.84"/>
    <poly id="-146940" type="building" color="red" fill="1" layer="2.00" shape="4890.93,7775.25 4905.07,7779.08 4908.93,7764.89 4894.79,7761.06 4890.93,7775.25"/>
    <poly id="-146942" type="building" color="red" fill="1" layer="2.00" shape="9306.90,5065.40 9315.07,5074.15 9320.81,5068.83 9312.64,5060.07 9306.90,5065.40"/>
    <poly id="-146944" type="building" color="red" fill="1" layer="2.00" shape="5631.99,5217.09 5643.65,5206.41 5638.55,5200.87 5645.42,5194.58 5650.20,5199.77 5662.99,5188.06 5630.77,5153.08 5599.44,5181.76 5631.99,5217.09"/>
    <poly id="-146946" type="building" color="red" fill="1" layer="2.00" shape="4477.58,5830.50 4487.97,5837.25 4471.10,5863.11 4460.70,5856.37 4477.58,5830.50"/>
    <poly id="-146948" type="building" color="red" fill="1" layer="2.00" shape="10227.40,8306.65 10227.09,8316.13 10205.97,8315.45 10206.29,8305.96 10227.40,8306.65"/>
    <poly id="-146950" type="building" color="red" fill="1" layer="2.00" shape="5449.88,7650.59 5467.65,7666.93 5475.34,7658.62 5457.58,7642.27 5449.88,7650.59"/>
    <poly id="-146952" type="building" color="red" fill="1" layer="2.00" shape="5461.11,6561.62 5465.21,6563.59 5469.85,6565.71 5470.45,6570.05 5482.17,6567.20 5480.95,6560.34 5478.48,6557.14 5466.21,6550.29 5461.11,6561.62"/>
    <poly id="-146954" type="building" color="red" fill="1" layer="2.00" shape="3274.19,6238.44 3305.58,6248.10 3310.25,6233.00 3330.97,6239.37 3343.41,6199.17 3291.30,6183.14 3274.19,6238.44"/>
    <poly id="-146956" type="building" color="red" fill="1" layer="2.00" shape="9064.02,6340.81 9079.75,6349.23 9085.45,6338.63 9069.73,6330.21 9064.02,6340.81"/>
    <poly id="-146958" type="building" color="red" fill="1" layer="2.00" shape="8890.71,6389.23 8874.12,6387.06 8875.67,6375.25 8892.27,6377.42 8890.71,6389.23"/>
    <poly id="-146960" type="building" color="red" fill="1" layer="2.00" shape="2208.34,8177.42 2215.37,8176.83 2214.81,8167.46 2214.69,8165.32 2207.68,8165.89 2208.34,8177.42"/>
    <poly id="-146962" type="building" color="red" fill="1" layer="2.00" shape="9778.38,6440.41 9785.47,6446.24 9793.51,6436.48 9786.41,6430.67 9778.38,6440.41"/>
    <poly id="-146964" type="building" color="red" fill="1" layer="2.00" shape="5755.90,6399.63 5786.57,6414.01 5792.34,6401.79 5765.11,6389.01 5763.67,6392.07 5760.23,6390.47 5755.90,6399.63"/>
    <poly id="-146966" type="building" color="red" fill="1" layer="2.00" shape="7443.56,6138.82 7442.28,6133.46 7461.77,6126.38 7463.11,6132.21 7443.56,6138.82"/>
    <poly id="-146968" type="building" color="red" fill="1" layer="2.00" shape="1316.81,7057.16 1333.47,7056.90 1333.00,7027.71 1316.34,7027.98 1316.81,7057.16"/>
    <poly id="-146970" type="building" color="red" fill="1" layer="2.00" shape="3294.81,8039.59 3295.75,8048.83 3303.97,8047.99 3303.02,8038.74 3294.81,8039.59"/>
    <poly id="-146972" type="building" color="red" fill="1" layer="2.00" shape="5652.98,5135.11 5647.05,5144.22 5666.50,5156.84 5672.45,5147.73 5652.98,5135.11"/>
    <poly id="-146974" type="building" color="red" fill="1" layer="2.00" shape="3696.66,8314.67 3696.93,8302.57 3714.98,8302.97 3714.71,8315.06 3696.66,8314.67"/>
    <poly id="-146976" type="building" color="red" fill="1" layer="2.00" shape="7190.00,7063.95 7191.17,7078.80 7192.68,7084.52 7196.07,7084.24 7197.05,7098.08 7203.20,7097.57 7202.56,7083.67 7201.38,7064.55 7199.72,7063.41 7195.15,7063.84 7190.00,7063.95"/>
    <poly id="-146978" type="building" color="red" fill="1" layer="2.00" shape="7692.09,3362.44 7704.78,3355.54 7699.74,3346.30 7715.01,3338.00 7703.93,3317.73 7675.97,3332.92 7692.09,3362.44"/>
    <poly id="-146980" type="building" color="red" fill="1" layer="2.00" shape="4812.31,4132.87 4821.03,4140.92 4833.25,4127.77 4824.53,4119.72 4812.31,4132.87"/>
    <poly id="-146982" type="building" color="red" fill="1" layer="2.00" shape="6920.01,4860.75 6913.08,4867.59 6904.40,4881.71 6913.28,4886.99 6929.97,4863.39 6929.73,4856.33 6928.45,4854.53 6920.01,4860.75"/>
    <poly id="-146984" type="building" color="red" fill="1" layer="2.00" shape="7938.22,9294.17 7946.23,9300.91 7952.38,9293.62 7945.17,9287.56 7938.22,9294.17"/>
    <poly id="-146986" type="building" color="red" fill="1" layer="2.00" shape="10251.61,9499.83 10254.29,9496.78 10247.87,9491.16 10250.24,9488.47 10278.44,9513.14 10285.20,9505.48 10291.59,9511.07 10293.82,9508.52 10287.43,9502.93 10294.29,9495.13 10251.60,9457.77 10235.44,9476.14 10244.68,9484.23 10239.94,9489.62 10243.10,9492.38 10251.61,9499.83"/>
    <poly id="-146988" type="building" color="red" fill="1" layer="2.00" shape="5265.39,6333.47 5259.95,6332.94 5258.48,6347.60 5258.34,6348.95 5271.25,6350.23 5271.35,6349.23 5277.88,6349.88 5278.99,6338.84 5279.83,6338.92 5280.23,6334.95 5265.39,6333.47"/>
    <poly id="-146990" type="building" color="red" fill="1" layer="2.00" shape="3417.48,8179.69 3418.19,8167.13 3435.22,8168.07 3434.52,8180.64 3417.48,8179.69"/>
    <poly id="-146992" type="building" color="red" fill="1" layer="2.00" shape="7312.00,8897.09 7317.65,8900.78 7313.06,8907.76 7307.41,8904.07 7312.00,8897.09"/>
    <poly id="-146994" type="building" color="red" fill="1" layer="2.00" shape="5374.74,7634.82 5353.71,7637.74 5355.32,7649.32 5376.35,7646.42 5374.74,7634.82"/>
    <poly id="-146996" type="building" color="red" fill="1" layer="2.00" shape="4063.88,7730.92 4081.11,7725.02 4085.51,7738.40 4068.28,7744.29 4063.88,7730.92"/>
    <poly id="-146998" type="building" color="red" fill="1" layer="2.00" shape="7997.90,5874.13 8039.70,5894.94 8047.12,5881.58 8014.83,5863.78 8006.13,5857.86 7997.90,5874.13"/>
    <poly id="-147000" type="building" color="red" fill="1" layer="2.00" shape="7815.73,3840.84 7843.63,3852.94 7849.86,3838.65 7821.96,3826.55 7815.73,3840.84"/>
    <poly id="-147002" type="building" color="red" fill="1" layer="2.00" shape="9772.41,8652.40 9780.07,8661.77 9789.40,8654.18 9781.74,8644.82 9772.41,8652.40"/>
    <poly id="-147004" type="building" color="red" fill="1" layer="2.00" shape="9757.80,6925.21 9765.81,6916.44 9760.19,6911.34 9751.97,6920.34 9757.80,6925.21"/>
    <poly id="-147006" type="building" color="red" fill="1" layer="2.00" shape="8941.30,8243.06 8951.94,8232.96 8955.08,8233.10 8960.68,8229.66 8966.18,8228.28 8968.54,8225.67 8974.58,8224.57 8985.77,8223.88 9002.05,8223.57 9022.13,8225.21 9041.37,8227.06 9059.00,8229.34 9068.85,8230.72 9082.62,8240.81 9093.42,8261.45 9103.93,8281.37 9112.95,8299.59 9124.07,8322.04 9127.61,8328.81 9096.83,8332.32 9078.55,8332.93 9060.79,8331.22 9043.08,8328.74 9028.78,8324.91 9026.65,8324.99 9035.86,8344.45 9024.70,8349.52 9009.68,8355.16 8998.90,8348.09 8987.96,8342.48 9003.31,8322.73 8997.66,8323.38 8976.00,8325.87 8953.74,8326.02 8937.05,8325.38 8898.74,8318.33 8902.56,8308.69 8909.35,8291.56 8917.62,8277.00 8927.74,8259.89 8941.30,8243.06"/>
    <poly id="-147008" type="building" color="red" fill="1" layer="2.00" shape="1874.44,7133.07 1894.28,7108.40 1881.27,7098.75 1862.71,7122.95 1874.44,7133.07"/>
    <poly id="-147010" type="building" color="red" fill="1" layer="2.00" shape="6509.96,5051.55 6522.27,5060.37 6534.38,5067.26 6546.33,5073.07 6557.99,5077.57 6563.40,5064.22 6550.43,5060.01 6539.70,5054.63 6527.31,5046.67 6518.35,5040.14 6509.96,5051.55"/>
    <poly id="-147012" type="building" color="red" fill="1" layer="2.00" shape="7794.77,5382.04 7786.78,5378.66 7787.87,5376.11 7788.38,5373.01 7798.38,5374.08 7794.77,5382.04"/>
    <poly id="-147014" type="building" color="red" fill="1" layer="2.00" shape="3514.36,8513.19 3512.94,8499.91 3525.51,8498.58 3526.92,8511.86 3514.36,8513.19"/>
    <poly id="-147016" type="building" color="red" fill="1" layer="2.00" shape="8423.25,8855.33 8430.43,8842.80 8414.89,8833.94 8407.71,8846.47 8423.25,8855.33"/>
    <poly id="-147018" type="building" color="red" fill="1" layer="2.00" shape="9792.17,3909.65 9804.67,3899.62 9797.75,3890.75 9785.11,3900.79 9792.17,3909.65"/>
    <poly id="-147020" type="building" color="red" fill="1" layer="2.00" shape="1164.27,6948.69 1162.74,6935.66 1152.82,6936.81 1154.34,6949.84 1164.27,6948.69"/>
    <poly id="-147022" type="building" color="red" fill="1" layer="2.00" shape="10210.49,4312.47 10218.30,4303.47 10211.77,4297.16 10203.56,4307.03 10210.49,4312.47"/>
    <poly id="-147024" type="building" color="red" fill="1" layer="2.00" shape="9886.67,7447.43 9897.55,7450.66 9893.30,7464.87 9882.42,7461.63 9886.67,7447.43"/>
    <poly id="-147026" type="building" color="red" fill="1" layer="2.00" shape="9377.62,6588.21 9385.80,6592.12 9391.25,6580.78 9392.48,6578.22 9384.30,6574.31 9377.62,6588.21"/>
    <poly id="-147028" type="building" color="red" fill="1" layer="2.00" shape="6056.23,6823.64 6057.98,6837.15 6084.03,6833.78 6082.27,6820.26 6056.23,6823.64"/>
    <poly id="-147030" type="building" color="red" fill="1" layer="2.00" shape="6539.33,4940.19 6566.13,4975.44 6586.56,4960.10 6583.92,4957.43 6594.25,4949.43 6587.16,4940.45 6580.48,4932.02 6568.71,4917.13 6556.91,4926.40 6539.33,4940.19"/>
    <poly id="-147032" type="building" color="red" fill="1" layer="2.00" shape="7515.48,7043.12 7521.05,7038.37 7510.16,7027.11 7504.85,7035.29 7515.48,7043.12"/>
    <poly id="-147034" type="building" color="red" fill="1" layer="2.00" shape="7387.67,6205.93 7389.20,6212.23 7376.19,6215.20 7367.00,6217.30 7355.79,6219.85 7354.44,6213.88 7387.67,6205.93"/>
    <poly id="-147036" type="building" color="red" fill="1" layer="2.00" shape="7931.36,9261.85 7937.89,9252.82 7926.00,9244.28 7919.48,9253.29 7931.36,9261.85"/>
    <poly id="-147038" type="building" color="red" fill="1" layer="2.00" shape="7838.03,4011.99 7821.42,4055.24 7806.92,4049.70 7823.53,4006.46 7838.03,4011.99"/>
    <poly id="-147040" type="building" color="red" fill="1" layer="2.00" shape="12210.45,8514.38 12193.03,8506.77 12197.09,8497.51 12214.52,8505.12 12210.45,8514.38"/>
    <poly id="-147042" type="building" color="red" fill="1" layer="2.00" shape="10642.10,4044.94 10648.17,4040.04 10641.87,4029.53 10634.96,4035.33 10642.10,4044.94"/>
    <poly id="-147044" type="building" color="red" fill="1" layer="2.00" shape="5203.37,4468.28 5219.22,4474.70 5224.43,4461.92 5208.56,4455.50 5203.37,4468.28"/>
    <poly id="-147046" type="building" color="red" fill="1" layer="2.00" shape="3595.76,8164.35 3599.45,8151.55 3608.58,8154.18 3604.89,8166.97 3595.76,8164.35"/>
    <poly id="-147048" type="building" color="red" fill="1" layer="2.00" shape="7645.08,3426.50 7651.31,3438.91 7660.36,3434.40 7666.33,3446.29 7676.50,3441.22 7664.31,3416.90 7645.08,3426.50"/>
    <poly id="-147050" type="building" color="red" fill="1" layer="2.00" shape="1561.07,6975.15 1573.00,6974.55 1572.48,6964.38 1560.56,6964.97 1561.07,6975.15"/>
    <poly id="-147052" type="building" color="red" fill="1" layer="2.00" shape="5541.38,5250.26 5544.13,5253.11 5547.55,5249.83 5544.80,5246.98 5541.38,5250.26"/>
    <poly id="-147054" type="building" color="red" fill="1" layer="2.00" shape="1133.85,7142.57 1135.99,7131.09 1128.98,7129.78 1126.84,7141.26 1133.85,7142.57"/>
    <poly id="-147056" type="building" color="red" fill="1" layer="2.00" shape="8280.78,5481.04 8286.82,5482.62 8287.03,5481.82 8289.39,5472.85 8283.35,5471.26 8280.78,5481.04"/>
    <poly id="-147058" type="building" color="red" fill="1" layer="2.00" shape="7111.72,7072.01 7114.32,7097.58 7117.88,7097.23 7115.37,7071.76 7111.72,7072.01"/>
    <poly id="-147060" type="building" color="red" fill="1" layer="2.00" shape="7694.40,3203.11 7723.42,3188.48 7708.67,3159.37 7679.64,3174.00 7694.40,3203.11"/>
    <poly id="-147062" type="building" color="red" fill="1" layer="2.00" shape="5740.40,6869.04 5741.21,6883.89 5764.60,6882.61 5763.78,6867.76 5740.40,6869.04"/>
    <poly id="-147064" type="building" color="red" fill="1" layer="2.00" shape="7796.34,4271.76 7789.01,4268.23 7765.77,4257.07 7769.91,4248.50 7800.49,4263.20 7796.34,4271.76"/>
    <poly id="-147066" type="building" color="red" fill="1" layer="2.00" shape="6931.85,7277.96 6938.36,7269.54 6923.88,7258.42 6918.69,7265.14 6921.81,7267.54 6920.50,7269.25 6931.85,7277.96"/>
    <poly id="-147068" type="building" color="red" fill="1" layer="2.00" shape="6989.68,4962.39 6987.99,4960.95 6983.91,4965.70 6985.79,4967.30 6974.88,4983.16 6991.97,4994.85 7001.13,4981.54 7003.58,4983.73 7009.95,4976.64 7007.57,4974.50 7017.36,4964.09 7001.76,4949.52 6989.68,4962.39"/>
    <poly id="-147070" type="building" color="red" fill="1" layer="2.00" shape="9213.65,7085.76 9221.78,7088.25 9224.79,7078.52 9216.66,7076.02 9213.65,7085.76"/>
    <poly id="-147072" type="building" color="red" fill="1" layer="2.00" shape="7766.27,2479.09 7780.18,2478.13 7779.20,2464.12 7765.29,2465.08 7766.27,2479.09"/>
    <poly id="-147074" type="building" color="red" fill="1" layer="2.00" shape="6260.59,6224.26 6276.30,6233.69 6281.44,6225.19 6272.63,6219.91 6275.01,6215.97 6268.10,6211.82 6260.59,6224.26"/>
    <poly id="-147076" type="building" color="red" fill="1" layer="2.00" shape="5442.06,6722.23 5426.56,6718.42 5428.42,6710.90 5443.92,6714.71 5442.06,6722.23"/>
    <poly id="-147078" type="building" color="red" fill="1" layer="2.00" shape="3460.31,7010.42 3439.57,6999.86 3421.81,7036.14 3433.77,7041.78 3423.69,7063.26 3458.60,7081.34 3468.98,7059.19 3443.22,7046.84 3460.31,7010.42"/>
    <poly id="-147080" type="building" color="red" fill="1" layer="2.00" shape="6240.97,6713.70 6244.00,6703.54 6242.01,6702.96 6244.33,6695.20 6250.02,6696.90 6252.11,6689.88 6241.76,6686.82 6245.81,6673.26 6234.35,6669.86 6226.29,6696.88 6230.27,6698.05 6228.27,6704.77 6233.28,6706.24 6231.86,6710.99 6240.97,6713.70"/>
    <poly id="-147082" type="building" color="red" fill="1" layer="2.00" shape="7400.46,7663.53 7409.99,7663.17 7409.43,7648.32 7399.89,7648.68 7400.46,7663.53"/>
    <poly id="-147084" type="building" color="red" fill="1" layer="2.00" shape="8106.43,7227.54 8122.77,7225.15 8122.83,7226.81 8145.81,7222.36 8168.13,7214.12 8169.94,7218.00 8150.44,7226.39 8146.75,7227.91 8116.06,7233.20 8116.59,7236.27 8107.78,7237.93 8106.43,7227.54"/>
    <poly id="-147086" type="building" color="red" fill="1" layer="2.00" shape="8837.45,8809.16 8801.39,8787.32 8794.25,8799.05 8830.29,8820.90 8837.45,8809.16"/>
    <poly id="-147088" type="building" color="red" fill="1" layer="2.00" shape="10391.20,8040.22 10407.72,8014.77 10398.99,8009.14 10382.47,8034.60 10391.20,8040.22"/>
    <poly id="-147090" type="building" color="red" fill="1" layer="2.00" shape="4241.63,8122.23 4254.81,8115.26 4247.22,8100.99 4234.05,8107.95 4241.63,8122.23"/>
    <poly id="-147092" type="building" color="red" fill="1" layer="2.00" shape="10714.60,9077.31 10673.06,9039.88 10701.70,8997.14 10718.07,9008.15 10703.70,9036.75 10727.40,9059.01 10714.60,9077.31"/>
    <poly id="-147094" type="building" color="red" fill="1" layer="2.00" shape="9720.60,3807.73 9714.64,3818.83 9735.15,3829.79 9741.11,3818.68 9720.60,3807.73"/>
    <poly id="-147096" type="building" color="red" fill="1" layer="2.00" shape="5151.60,7610.34 5212.53,7594.10 5224.30,7622.33 5164.07,7637.21 5151.60,7610.34"/>
    <poly id="-147098" type="building" color="red" fill="1" layer="2.00" shape="7965.92,9260.26 7944.75,9244.29 7949.57,9237.94 7963.97,9248.79 7962.07,9251.30 7968.84,9256.41 7965.92,9260.26"/>
    <poly id="-147100" type="building" color="red" fill="1" layer="2.00" shape="6159.55,8717.47 6159.27,8718.20 6177.33,8724.80 6181.20,8714.25 6174.32,8711.75 6172.81,8715.85 6168.09,8714.12 6170.50,8707.57 6164.05,8705.21 6163.89,8705.66 6159.55,8717.47"/>
    <poly id="-147102" type="building" color="red" fill="1" layer="2.00" shape="5869.33,5210.04 5877.70,5213.71 5881.84,5204.38 5875.44,5200.82 5869.33,5210.04"/>
    <poly id="-147104" type="building" color="red" fill="1" layer="2.00" shape="6239.49,5997.12 6247.53,6005.62 6276.89,5977.99 6268.85,5969.49 6254.82,5982.68 6239.49,5997.12"/>
    <poly id="-147106" type="building" color="red" fill="1" layer="2.00" shape="6619.28,5102.17 6622.93,5113.39 6663.95,5100.11 6660.30,5088.90 6619.28,5102.17"/>
    <poly id="-147108" type="building" color="red" fill="1" layer="2.00" shape="9576.31,2794.64 9569.72,2790.16 9576.82,2779.78 9583.41,2784.27 9576.31,2794.64"/>
    <poly id="-147110" type="building" color="red" fill="1" layer="2.00" shape="7740.34,8086.47 7736.45,8091.88 7746.72,8099.21 7750.60,8093.78 7740.34,8086.47"/>
    <poly id="-147112" type="building" color="red" fill="1" layer="2.00" shape="5045.51,6461.14 5058.63,6462.54 5059.66,6452.85 5075.12,6454.50 5076.88,6438.11 5059.00,6436.21 5057.92,6446.28 5047.23,6445.14 5045.51,6461.14"/>
    <poly id="-147114" type="building" color="red" fill="1" layer="2.00" shape="7621.74,4718.22 7623.70,4707.84 7630.48,4708.95 7637.15,4708.70 7644.11,4707.32 7651.67,4705.06 7657.19,4702.96 7659.54,4707.67 7666.17,4703.96 7672.31,4699.50 7677.89,4694.35 7682.81,4688.58 7687.03,4682.27 7690.47,4675.51 7693.09,4668.39 7694.85,4661.02 7695.72,4653.49 7695.71,4645.91 7694.79,4638.39 7693.00,4631.02 7690.34,4623.92 7686.87,4617.19 7682.62,4610.89 7677.67,4605.15 7672.06,4600.03 7665.89,4595.60 7659.25,4591.93 7652.21,4589.06 7642.56,4616.50 7646.25,4618.01 7649.74,4619.95 7652.99,4622.27 7655.93,4624.95 7658.54,4627.96 7660.79,4631.26 7662.63,4634.79 7664.05,4638.51 7665.01,4642.38 7665.52,4646.33 7665.57,4650.31 7665.15,4654.27 7664.26,4658.15 7662.93,4661.91 7661.17,4665.48 7659.00,4668.83 7656.45,4671.90 7653.56,4674.65 7650.38,4677.04 7646.93,4679.05 7643.26,4680.65 7639.44,4681.80 7635.51,4682.50 7631.52,4682.74 7627.54,4682.52 7618.82,4680.24 7618.24,4681.16 7607.84,4678.27 7599.11,4711.05 7621.74,4718.22"/>
    <poly id="-147116" type="building" color="red" fill="1" layer="2.00" shape="1295.88,7160.98 1306.39,7161.73 1307.25,7149.54 1296.74,7148.80 1295.88,7160.98"/>
    <poly id="-147118" type="building" color="red" fill="1" layer="2.00" shape="4630.10,7751.41 4649.56,7739.48 4654.86,7748.08 4658.14,7746.08 4692.93,7802.52 4668.34,7817.58 4638.61,7769.34 4633.66,7761.33 4635.51,7760.20 4630.10,7751.41"/>
    <poly id="-147120" type="building" color="red" fill="1" layer="2.00" shape="6489.38,5238.70 6486.44,5226.50 6468.99,5230.70 6468.54,5228.14 6452.90,5232.01 6453.50,5235.25 6457.71,5252.56 6490.83,5244.72 6489.38,5238.70"/>
    <poly id="-147122" type="building" color="red" fill="1" layer="2.00" shape="7376.02,7049.34 7374.33,7045.13 7372.56,7040.73 7379.84,7037.80 7381.91,7042.97 7383.31,7046.42 7376.02,7049.34"/>
    <poly id="-147124" type="building" color="red" fill="1" layer="2.00" shape="6097.68,6783.31 6099.43,6798.06 6127.50,6794.74 6126.10,6782.95 6107.97,6785.09 6107.61,6782.13 6097.68,6783.31"/>
    <poly id="-147126" type="building" color="red" fill="1" layer="2.00" shape="8842.81,5628.98 8849.90,5617.08 8828.19,5604.23 8822.67,5613.50 8838.58,5622.92 8837.01,5625.55 8842.81,5628.98"/>
    <poly id="-147128" type="building" color="red" fill="1" layer="2.00" shape="8756.26,5028.97 8749.84,5018.84 8719.01,5038.27 8725.43,5048.40 8756.26,5028.97"/>
    <poly id="-147130" type="building" color="red" fill="1" layer="2.00" shape="4702.76,5937.30 4664.38,5952.02 4669.93,5964.67 4707.91,5949.46 4702.76,5937.30"/>
    <poly id="-147132" type="building" color="red" fill="1" layer="2.00" shape="7930.77,8588.51 7937.44,8592.90 7935.92,8595.21 7944.28,8600.71 7948.97,8593.62 7953.00,8596.28 7956.41,8591.12 7947.86,8585.49 7945.12,8589.62 7941.29,8587.11 7942.13,8585.83 7935.78,8581.64 7930.77,8588.51"/>
    <poly id="-147134" type="building" color="red" fill="1" layer="2.00" shape="7926.11,3994.80 7939.20,4000.23 7952.92,3967.32 7939.83,3961.89 7926.11,3994.80"/>
    <poly id="-147136" type="building" color="red" fill="1" layer="2.00" shape="7750.47,4036.70 7761.19,4010.33 7749.29,4005.52 7738.58,4031.90 7750.47,4036.70"/>
    <poly id="-147138" type="building" color="red" fill="1" layer="2.00" shape="6804.72,8466.70 6841.83,8470.99 6843.08,8460.21 6805.98,8455.93 6804.72,8466.70"/>
    <poly id="-147140" type="building" color="red" fill="1" layer="2.00" shape="3442.66,8333.73 3443.03,8322.37 3459.91,8322.92 3459.52,8334.28 3442.66,8333.73"/>
    <poly id="-147142" type="building" color="red" fill="1" layer="2.00" shape="1613.06,8225.17 1626.01,8225.81 1627.99,8186.20 1599.82,8184.80 1599.16,8198.14 1614.37,8198.89 1613.06,8225.17"/>
    <poly id="-147144" type="building" color="red" fill="1" layer="2.00" shape="5269.16,6459.69 5260.78,6458.95 5259.79,6469.97 5268.18,6470.70 5269.16,6459.69"/>
    <poly id="-147146" type="building" color="red" fill="1" layer="2.00" shape="6187.65,3674.33 6221.07,3669.12 6218.69,3653.96 6185.28,3659.16 6187.65,3674.33"/>
    <poly id="-147148" type="building" color="red" fill="1" layer="2.00" shape="7289.85,8338.72 7290.32,8350.95 7284.36,8351.90 7284.25,8348.99 7280.61,8349.58 7280.42,8344.62 7284.78,8343.73 7284.59,8338.93 7289.85,8338.72"/>
    <poly id="-147150" type="building" color="red" fill="1" layer="2.00" shape="11085.07,6302.04 11108.58,6314.04 11129.42,6273.43 11105.91,6261.43 11085.07,6302.04"/>
    <poly id="-147152" type="building" color="red" fill="1" layer="2.00" shape="8256.95,9505.94 8264.15,9499.57 8257.85,9492.48 8250.65,9498.85 8256.95,9505.94"/>
    <poly id="-147154" type="building" color="red" fill="1" layer="2.00" shape="5705.47,8077.14 5713.61,8075.76 5713.95,8077.76 5721.96,8076.39 5722.20,8077.74 5729.46,8076.51 5729.68,8077.78 5738.10,8076.34 5738.24,8077.18 5746.74,8075.74 5744.36,8061.82 5736.15,8063.21 5735.85,8061.47 5728.85,8062.65 5728.58,8061.08 5721.23,8062.33 5721.02,8061.12 5712.39,8062.59 5712.14,8061.09 5703.00,8062.64 5705.47,8077.14"/>
    <poly id="-147156" type="building" color="red" fill="1" layer="2.00" shape="3846.61,6210.27 3847.76,6219.06 3877.47,6215.23 3876.33,6206.44 3846.61,6210.27"/>
    <poly id="-147158" type="building" color="red" fill="1" layer="2.00" shape="5537.08,6427.78 5527.22,6452.06 5533.71,6454.71 5543.59,6442.82 5547.53,6432.00 5537.08,6427.78"/>
    <poly id="-147160" type="building" color="red" fill="1" layer="2.00" shape="8115.32,8579.70 8123.08,8583.91 8127.55,8575.73 8119.79,8571.51 8115.32,8579.70"/>
    <poly id="-147162" type="building" color="red" fill="1" layer="2.00" shape="8761.88,5024.37 8755.40,5014.43 8779.50,4998.80 8785.69,5008.31 8761.88,5024.37"/>
    <poly id="-147164" type="building" color="red" fill="1" layer="2.00" shape="5475.61,6268.35 5477.81,6269.40 5474.61,6276.09 5462.56,6270.35 5465.77,6263.66 5475.61,6268.35"/>
    <poly id="-147166" type="building" color="red" fill="1" layer="2.00" shape="3440.75,8183.28 3442.08,8170.18 3454.90,8171.47 3453.32,8186.90 3447.40,8186.30 3447.64,8183.98 3440.75,8183.28"/>
    <poly id="-147168" type="building" color="red" fill="1" layer="2.00" shape="6631.78,8357.91 6631.43,8364.57 6629.51,8364.47 6629.09,8372.76 6655.57,8374.10 6656.46,8356.60 6650.81,8356.31 6650.68,8358.85 6631.78,8357.91"/>
    <poly id="-147170" type="building" color="red" fill="1" layer="2.00" shape="6497.32,4639.09 6499.19,4642.09 6502.08,4640.43 6500.21,4637.40 6497.32,4639.09"/>
    <poly id="-147172" type="building" color="red" fill="1" layer="2.00" shape="10218.24,8345.18 10217.67,8348.26 10213.03,8347.40 10210.90,8358.93 10172.32,8351.84 10175.02,8337.23 10218.24,8345.18"/>
    <poly id="-147174" type="building" color="red" fill="1" layer="2.00" shape="8695.51,1924.19 8708.91,1925.76 8710.65,1910.99 8701.22,1909.89 8700.47,1916.28 8696.50,1915.82 8695.51,1924.19"/>