[General]
network = Mac80211
#random-seed = 13
cmdenv-express-mode = true
ned-path = ../../src;..
record-eventlog = false
sim-time-limit = 5000s

#bitmap-path = "../../bitmaps"
# tkenv-default-run = 1
#breakpoints-enabled = true
tkenv-default-config = 

# cmdenv-runs-to-execute = 1
cmdenv-event-banners = true
cmdenv-module-messages = true






##############################################################################
#       Parameters for the entire simulation                                 #
##############################################################################

**.playgroundSizeX = 500m
**.playgroundSizeY = 500m
**.playgroundSizeZ = 50m
**.numHosts = 2

**.phy.coreDebug = true
**.coreDebug = false
**.debug = true


##########################################################
#			WorldUtility parameters                      #
##########################################################
**.world.useTorus = false
**.world.use2D = false

##############################################################################
#       Parameters for the ConnectionManager                                 #
##############################################################################
**.connectionManager.carrierFrequency = 2.4e+9Hz  # [Hz]

# max transmission power [mW]
**.connectionManager.pMax = 110.11mW  # [mW]
# signal attenuation threshold [dBm]
**.connectionManager.sat = -120dBm  # [dBm]
# path loss coefficient alpha
**.connectionManager.alpha = 2
**.connectionManager.sendDirect = false


##############################################################################
#       Parameters for the Mobility Module                                   #
##############################################################################

**.mobility.speed = 0mps
**.mobility.updateInterval = 0.5s

**.host[0].mobility.x = 0
**.host[0].mobility.y = 0
**.host[0].mobility.z = 1.895

**.host[1].mobility.x = 500
**.host[1].mobility.y = 0
**.host[1].mobility.z = 1.895

##############################################################################
#       Parameters for the Host                                              #
##############################################################################

##############################################################################
#       Parameters for the Application Layer                                 #
##############################################################################

**.appl.headerLength = 1024bit
**.host[0].appl.burstSize = 3
**.appl.burstSize = 0

##############################################################################
#       Parameters for the Network Layer                                     #
##############################################################################
**.netwl.headerLength = 32bit# in bits
**.netwl.stats = false

##############################################################################
#       Parameters for ARP
##############################################################################

##############################################################################
#       Parameters for the Mac Layer                                         #
##############################################################################

**.mac.headerLength = 272 bit
**.mac.queueLength = 14
**.mac.bitrate = 2E+6bps# in bits/second
**.mac.autoBitrate = false

### values if no fading is modelled, gives at most 1% packet error rate
**.mac.snr2Mbit = 1.46dB  # [dB]
**.mac.snr5Mbit = 2.6dB  # [dB]
**.mac.snr11Mbit = 5.68dB  # [dB]

**.mac.rtsCtsThreshold = 400
**.mac.neighborhoodCacheSize = 30
**.mac.neighborhoodCacheMaxAge = 100s  # [s]

**.mac.txPower = 110.11mW  # [mW]

##############################################################################
#       Parameters for the Phy                                               #
##############################################################################

**.phy.usePropagationDelay = false
**.phy.thermalNoise = -110dBm  # [dBm]
**.phy.analogueModels = xmldoc("config.xml")
**.phy.decider = xmldoc("config.xml")
**.phy.sensitivity = -119.5dBm  # [dBm]
**.phy.maxTXPower = 110.11mW
**.phy.initialRadioState = 0
**.phy.useThermalNoise = true
