[General]
ned-path = ../../../src;../..
user-interface = Cmdenv
network = sim
cmdenv-event-banner-details = false
cmdenv-message-trace = true
seed-0-mt = 897054849
sim-time-limit = 500s

# tkenv-default-run = 1
# breakpoints-enabled = true

cmdenv-express-mode = true
cmdenv-performance-display = true        
# cmdenv-runs-to-execute = 1

cmdenv-event-banners = true
cmdenv-module-messages = true

output-scalar-precision = 12
output-vector-precision = 12


# by default, just record the primary time series
sim.host[*].batteryStats.capacity(relative).vector-recording = true
sim.host[*].batteryStats.*.vector-recording = false


##############################################################################
#       Parameters for the entire simulation                                 #
##############################################################################

sim.playgroundSizeX = 500m
sim.playgroundSizeY = 500m
sim.numHosts = 20

# uncomment to enable debug messages for all modules
**.debug = true
**.coreDebug = true


##############################################################################
#       Parameters for the ChannelControl                                    #
##############################################################################
sim.channelcontrol.carrierFrequency = 2.4e+9Hz

# max transmission power [mW]
sim.channelcontrol.pMax = 110.11 mW
# signal attenuation threshold [dBm]
sim.channelcontrol.sat = -120dBm
# path loss coefficient alpha
sim.channelcontrol.alpha = 4
sim.channelcontrol.sendDirect = false
sim.world.useTorus = false
sim.world.use2D = true


##############################################################################
#       Parameters for the Mobility Module                                   #
##############################################################################

# debug switch
sim.host[*].mobility.debug = false

# if set to 0 the MN does not move
sim.host[*].mobility.speed = 0
sim.host[*].mobility.updateInterval = 0.1s

# starting position for the hosts "-1" means random staring point
# starting position for the hosts "-1" means random staring point

sim.host[*].mobility.y = -1
sim.host[*].mobility.x = -1	


##############################################################################
#       Parameters for the Host                                              #
##############################################################################
sim.host[*].color = "white"
sim.host[*].appendDisplay = "b=20,20,oval;o=blue,black,2"

##############################################################################
#       Parameters for the Application Layer                                 #
##############################################################################

# debug switch
sim.host[*].appl.debug = false
sim.host[*].appl.headerLength = 1024bit
sim.host[*].appl.burstSize = 7


##############################################################################
#       Parameters for the Network Layer                                     #
##############################################################################
sim.host[*].net.headerLength = 32bit# in bits
sim.host[*].net.debug = false
sim.host[*].net.notAffectedByHostState = true

##############################################################################
#       Parameters for ARP
##############################################################################
sim.host[*].arp.debug = 0

##############################################################################
#       Parameters for the Mac Layer                                         #
##############################################################################

# debug switch

sim.host[*].nic.mac.debug = true
sim.host[*].nic.mac.headerLength = 272bit
sim.host[*].nic.mac.queueLength = 14
sim.host[*].nic.mac.bitrate = 2E+6bps# in bits/second
sim.host[*].nic.mac.autoBitrate = false

### values if no fading is modelled, gives at most 1% packet error rate
sim.host[*].nic.mac.snr2Mbit = 1.46dB   
sim.host[*].nic.mac.snr5Mbit = 2.6dB
sim.host[*].nic.mac.snr11Mbit = 5.68dB

sim.host[*].nic.mac.rtsCtsThreshold = 0
sim.host[*].nic.mac.neighborhoodCacheSize = 30
sim.host[*].nic.mac.neighborhoodCacheMaxAge = 100s

sim.host[*].nic.mac.notAffectedByHostState = true

##############################################################################
#       Parameters for the SnrEval                                           #
##############################################################################

# debug switch
sim.host[*].nic.phy.debug = true
sim.host[*].nic.phy.coreDebug = true
sim.host[*].nic.phy.publishRSSIAlways = 0
sim.host[*].nic.phy.headerLength = 192bit
sim.host[*].nic.phy.transmitterPower = 110.11# [mW]
sim.host[*].nic.phy.carrierFrequency = 2.4E+9
sim.host[*].nic.phy.thermalNoise = -110dBm
sim.host[*].nic.phy.sensitivity = -119.5dBm
sim.host[*].nic.phy.pathLossAlpha = 4

##############################################################################
#       Battery consumption parameters (NIC, battery, batteryStats)x
##############################################################################

sim.host[*].batteryStats.debug = true# 	
sim.host[*].batteryStats.detail = true# 	
sim.host[*].batteryStats.timeSeries = true# 	

sim.host[*].battery.publishDelta = 0    # every change
sim.host[*].battery.publishTime = 0     # no timeout

sim.host[*].battery.debug = true           
sim.host[*].battery.resolution = 1.0s   # lifetime precision
sim.host[*].battery.voltage = 1V        # BatteryModule2.0 has no voltage
sim.host[*].battery.capacity = 5.555555555555555 mAh # equiv to 20/30K in AFOrig
sim.host[*].battery.nominal = 8.333333333333334 mAh# 


# NIC parameters relatively prime for test case...
sim.host[*].nic.sleepCurrent = 3mA
sim.host[*].nic.rxCurrent = 5mA
sim.host[*].nic.decodingCurrentDelta = 2mA
sim.host[*].nic.txCurrent = 11mA
sim.host[*].nic.rxTxCurrent = 0mA # no radio switching times
sim.host[*].nic.txRxCurrent = 0mA # no radio switching times
sim.host[*].nic.setupRxCurrent = 0mA # no radio switching times
sim.host[*].nic.setupTxCurrent = 0mA # no radio switching times

sim.world.playgroundSizeZ = 0m
sim.host[*].mobility.z = 0
sim.host[*].net.stats = false
sim.host[*].nic.mac.txPower = 110.11mW 
sim.host[*].nic.phy.usePropagationDelay = false 
sim.host[*].nic.phy.useThermalNoise = true
sim.host[*].nic.phy.analogueModels = xmldoc("config.xml")
sim.host[*].nic.phy.decider = xmldoc("config.xml")
sim.host[*].nic.phy.maxTXPower = 110.11mW
sim.host[*].nic.phy.timeRXToTX = 0
sim.host[*].nic.phy.timeRXToSleep = 0
sim.host[*].nic.phy.timeTXToRX = 0
sim.host[*].nic.phy.timeTXToSleep = 0
sim.host[*].nic.phy.timeSleepToRX = 0
sim.host[*].nic.phy.timeSleepToTX = 0
sim.host[*].nic.phy.initialRadioState = 0


##############################################################################
#       Test runs
##############################################################################


# two hosts in range, each sends one bcast and one unicast reply
[Config One]
output-vector-file = omnetpp_1.vec
sim.numHosts = 2
sim.host[0].mobility.y = 100
sim.host[0].mobility.x = 100	
sim.host[1].mobility.y = 150
sim.host[1].mobility.x = 100	
sim.host[*].appl.burstSize = 1
sim-time-limit = 10s

# two hosts out of range; each sends one broadcast, frame not detected
[Config Two]
output-vector-file = omnetpp_2.vec
sim.numHosts = 2
sim.host[0].mobility.y = 100
sim.host[0].mobility.x = 100	
sim.host[1].mobility.y = 400
sim.host[1].mobility.x = 400	
sim.host[*].appl.burstSize = 1
sim-time-limit = 10s

# two hosts out of range; each sends one broadcast, only error is received
[Config Three]
output-vector-file = omnetpp_3.vec
sim.numHosts = 2
sim.host[0].mobility.y = 100
sim.host[0].mobility.x = 100	
sim.host[1].mobility.y = 350
sim.host[1].mobility.x = 100
sim.host[*].appl.burstSize = 1
sim-time-limit = 10s

# check battery depletion and host failure notification (no depletion)

[Config Four]
output-vector-file = omnetpp_4.vec
sim.numHosts = 3
sim.host[0].mobility.y = 100
sim.host[0].mobility.x = 100	
sim.host[1].mobility.y = 150
sim.host[1].mobility.x = 100	
sim.host[2].mobility.y = 100
sim.host[2].mobility.x = 150
sim.host[*].appl.debug = true
sim.host[*].appl.burstSize = 100
sim.host[*].nic.mac.queueLength = 301
sim.host[*].battery.nominal = 1.0 mAh # 
sim.host[2].battery.capacity = 1.0 mAh #  battery will be not depleted
sim.host[*].battery.capacity = 1.0 mAh # 
sim.host[*].nic.decodingCurrentDelta = 1695mA # 1700-5  
sim.host[*].nic.txCurrent = 2100mA      

sim.host[*].batteryStats.capacity(relative).vector-recording = true
sim.host[*].battery.publishDelta = 1            # no
sim.host[*].battery.publishTime = 0.1s           # 
sim-time-limit = 10s

# check battery depletion and host failure notification (depleted early)
[Config Five]
output-vector-file = omnetpp_5.vec
sim.numHosts = 3
sim.host[0].mobility.y = 100
sim.host[0].mobility.x = 100	
sim.host[1].mobility.y = 150
sim.host[1].mobility.x = 100	
sim.host[2].mobility.y = 100
sim.host[2].mobility.x = 150
sim.host[*].appl.debug = true
sim.host[*].appl.burstSize = 100
sim.host[*].nic.mac.queueLength = 301
sim.host[*].battery.nominal = 1.0mAh # 
sim.host[2].battery.capacity = 0.1mAh #  battery depleted before its burst
sim.host[*].battery.capacity = 1.0mAh # 
sim.host[*].nic.decodingCurrentDelta = 1695mA # 1700-5        
sim.host[*].nic.txCurrent = 2100mA      
sim-time-limit = 10s


# check battery depletion and host failure notification (depleted late)
[Config Six]
output-vector-file = omnetpp_6.vec
sim.numHosts = 3
sim.host[0].mobility.y = 100
sim.host[0].mobility.x = 100	
sim.host[1].mobility.y = 150
sim.host[1].mobility.x = 100	
sim.host[2].mobility.y = 100
sim.host[2].mobility.x = 150
sim.host[*].appl.debug = true
sim.host[*].appl.burstSize = 100
sim.host[*].nic.mac.queueLength = 301
sim.host[*].battery.nominal = 1.0mAh # 
sim.host[2].battery.capacity = 0.3mAh #  battery depleted after its burst
sim.host[*].battery.capacity = 1.0mAh # 
sim.host[*].nic.decodingCurrentDelta = 1695mA # 1700-5              
sim.host[*].nic.txCurrent = 2100mA        
sim-time-limit = 10s

# check battery depletion and host failure notification (during idle)
[Config Seven]

output-vector-file = omnetpp_7.vec
sim.numHosts = 3
sim.host[0].mobility.y = 100
sim.host[0].mobility.x = 100	
sim.host[1].mobility.y = 150
sim.host[1].mobility.x = 100	
sim.host[2].mobility.y = 100
sim.host[2].mobility.x = 150
sim.host[*].appl.debug = true
sim.host[*].appl.burstSize = 1
sim.host[*].nic.mac.queueLength = 301
sim.host[*].battery.resolution = 0.1s   # precision of host lifetime
sim.host[*].battery.nominal = 1.0mAh # 
sim.host[2].battery.capacity = 0.5mAh #  
sim.host[*].battery.capacity = 1.0mAh # 
sim.host[*].nic.rxCurrent = 500mA #  
sim.host[*].nic.decodingCurrentDelta = -499mA # 1-500
sim.host[*].nic.txCurrent = 2mA
sim-time-limit = 10s


# compare with AFTest (when idle and rxCurrent are equal, should be equivalent)
[Config Eight]
sim.host[*].nic.rxCurrent = 8mA
sim.host[*].nic.decodingCurrentDelta = 0mA
sim.host[*].nic.txCurrent = 8mA
sim.host[*].battery.publishDelta = 1            # none
sim.host[*].battery.publishTime = 0.250s         # 20 hosts * 4 data/sec * 500 sec
sim.host[*].batteryStats.capacity(relative).vector-recording = true
output-vector-file = omnetpp_80211.vec

# 802.11 with realistic battery and nic parameters (see also networks/80211Battery)
[Config Nine]
# appl parameters
sim.host[*].appl.burstSize = 10
sim.host[*].nic.mac.queueLength = 50

# Marvell 88W8686 low power IEEE 802.11 chipset
#include omnetpp_wifi_lowpow.ini
# SAMPLE battery consumption parameters for a low-power wi-fi device

# Marvell 88W8686 low power IEEE 802.11 chipset 
# see e.g. http://imote2-linux.wiki.sourceforge.net/UCAM-WSB100
# here we treat all components as 3V

sim.host[*].nic.sleepCurrent =  .85 mA
sim.host[*].nic.rxCurrent =   172 mA
sim.host[*].nic.decodingCurrentDelta = 28 mA   # 200-172
sim.host[*].nic.txCurrent =     153 mA

# Marvell 88W8686 spec  gives 14dBm max for CCK  
# leave at 20dBm from original omnetpp.ini; unclear how to translate
# other parameters (e.g. sensitivity)
# sim.host[*].nic.snrEval.transmitterPower = 25 ; mW

# G1 Android-phone battery 
# note that the G1 actually uses a qualcomm chip, but smartphone is a
# plausible low power wi-fi scenario

sim.host[*].battery.voltage =   3 V
sim.host[*].battery.capacity =  1150 mAh
sim.host[*].battery.nominal =   1150 mAh

# output parameters
output-vector-file = omnetpp.10.vec
sim.host[*].batteryStats.capacity(relative).vector-recording = true
sim.host[*].battery.resolution = 1.0s   # precision of host lifetime
sim.host[*].battery.publishDelta = 1    # none
sim.host[*].battery.publishTime = 0.250s# ;       
sim-time-limit = 15s

# 5x burst size compared to previous run, check that SEND and RECV 
# energy also larger
[Config Ten]

# appl parameters
sim.host[*].appl.burstSize = 50
sim.host[*].nic.mac.queueLength = 250

# Marvell 88W8686 low power IEEE 802.11 chipset
#include omnetpp_wifi_lowpow.ini
# SAMPLE battery consumption parameters for a low-power wi-fi device

# Marvell 88W8686 low power IEEE 802.11 chipset 
# see e.g. http://imote2-linux.wiki.sourceforge.net/UCAM-WSB100
# here we treat all components as 3V

sim.host[*].nic.sleepCurrent =  .85 mA
sim.host[*].nic.rxCurrent =   172 mA
sim.host[*].nic.decodingCurrentDelta = 28 mA  # 200-172
sim.host[*].nic.txCurrent =     153 mA

# Marvell 88W8686 spec  gives 14dBm max for CCK  
# leave at 20dBm from original omnetpp.ini; unclear how to translate
# other parameters (e.g. sensitivity)
# sim.host[*].nic.snrEval.transmitterPower = 25 ; mW

# G1 Android-phone battery 
# note that the G1 actually uses a qualcomm chip, but smartphone is a
# plausible low power wi-fi scenario

sim.host[*].battery.voltage =   3 V
sim.host[*].battery.capacity =  1150 mAh
sim.host[*].battery.nominal =   1150 mAh


# output parameters
output-vector-file = omnetpp.50.vec
sim.host[*].batteryStats.capacity(relative).vector-recording = true
sim.host[*].battery.resolution = 1.0s   # precision of host lifetime
sim.host[*].battery.publishDelta = 1    # none
sim.host[*].battery.publishTime = 0.250s  
sim-time-limit = 15s
