<?xml version="1.0"?>

<!-- generated on Wed Sep 15 13:56:37 2010 by SUMO netgen Version svn
<configuration>

    <grid_network>
        <grid-net value="true"/>
        <grid-x-number value="8"/>
        <grid-y-number value="27"/>
        <grid-x-length value="270"/>
        <grid-y-length value="80"/>
    </grid_network>

    <output>
        <output-file value="grid.net.xml"/>
    </output>

    <processing>
        <no-turnarounds value="true"/>
    </processing>

    <building_defaults>
        <lanenumber value="1"/>
        <speed value="13"/>
    </building_defaults>

</configuration>
-->

<net>

   <location netOffset="0.00,0.00" convBoundary="0.00,0.00,1890.00,2080.00" origBoundary="0.00,0.00,1890.00,2080.00" projParameter="!"/>

   <edge id=":0/0_0" function="internal">
      <lanes>
         <lane id=":0/0_0_0" depart="0" maxspeed="13.00" length="7.90" shape="-1.65,3.25 -1.34,1.11 -0.43,-0.42 1.11,-1.34 3.25,-1.65"/>
      </lanes>
   </edge>

   <edge id=":0/0_1" function="internal">
      <lanes>
         <lane id=":0/0_1_0" depart="0" maxspeed="13.00" length="2.58" shape="3.25,1.65 2.55,1.75 2.05,2.05 1.75,2.55 1.65,3.25"/>
      </lanes>
   </edge>

   <edge id=":0/1_0" function="internal">
      <lanes>
         <lane id=":0/1_0_0" depart="0" maxspeed="13.00" length="9.50" shape="-1.65,84.75 -1.65,75.25"/>
      </lanes>
   </edge>

   <edge id=":0/1_1" function="internal">
      <lanes>
         <lane id=":0/1_1_0" depart="0" maxspeed="13.00" length="10.32" shape="-1.65,84.75 -1.25,81.95 -0.05,79.95 1.95,78.75 4.75,78.35"/>
      </lanes>
   </edge>

   <edge id=":0/1_2" function="internal">
      <lanes>
         <lane id=":0/1_2_0" depart="0" maxspeed="13.00" length="5.00" shape="4.75,81.65 3.39,81.84 2.43,82.43 1.84,83.39 1.65,84.75"/>
      </lanes>
   </edge>

   <edge id=":0/1_3" function="internal">
      <lanes>
         <lane id=":0/1_3_0" depart="0" maxspeed="13.00" length="10.32" shape="4.75,81.65 1.95,81.25 -0.05,80.05 -1.25,78.05 -1.65,75.25"/>
      </lanes>
   </edge>

   <edge id=":0/1_4" function="internal">
      <lanes>
         <lane id=":0/1_4_0" depart="0" maxspeed="13.00" length="5.00" shape="1.65,75.25 1.84,76.61 2.43,77.57 3.39,78.16 4.75,78.35"/>
      </lanes>
   </edge>

   <edge id=":0/1_5" function="internal">
      <lanes>
         <lane id=":0/1_5_0" depart="0" maxspeed="13.00" length="9.50" shape="1.65,75.25 1.65,84.75"/>
      </lanes>
   </edge>

   <edge id=":0/10_0" function="internal">
      <lanes>
         <lane id=":0/10_0_0" depart="0" maxspeed="13.00" length="9.50" shape="-1.65,804.75 -1.65,795.25"/>
      </lanes>
   </edge>

   <edge id=":0/10_1" function="internal">
      <lanes>
         <lane id=":0/10_1_0" depart="0" maxspeed="13.00" length="10.32" shape="-1.65,804.75 -1.25,801.95 -0.05,799.95 1.95,798.75 4.75,798.35"/>
      </lanes>
   </edge>

   <edge id=":0/10_2" function="internal">
      <lanes>
         <lane id=":0/10_2_0" depart="0" maxspeed="13.00" length="5.00" shape="4.75,801.65 3.39,801.84 2.43,802.42 1.84,803.39 1.65,804.75"/>
      </lanes>
   </edge>

   <edge id=":0/10_3" function="internal">
      <lanes>
         <lane id=":0/10_3_0" depart="0" maxspeed="13.00" length="10.32" shape="4.75,801.65 1.95,801.25 -0.05,800.05 -1.25,798.05 -1.65,795.25"/>
      </lanes>
   </edge>

   <edge id=":0/10_4" function="internal">
      <lanes>
         <lane id=":0/10_4_0" depart="0" maxspeed="13.00" length="5.00" shape="1.65,795.25 1.84,796.61 2.43,797.57 3.39,798.16 4.75,798.35"/>
      </lanes>
   </edge>

   <edge id=":0/10_5" function="internal">
      <lanes>
         <lane id=":0/10_5_0" depart="0" maxspeed="13.00" length="9.50" shape="1.65,795.25 1.65,804.75"/>
      </lanes>
   </edge>

   <edge id=":0/11_0" function="internal">
      <lanes>
         <lane id=":0/11_0_0" depart="0" maxspeed="13.00" length="9.50" shape="-1.65,884.75 -1.65,875.25"/>
      </lanes>
   </edge>

   <edge id=":0/11_1" function="internal">
      <lanes>
         <lane id=":0/11_1_0" depart="0" maxspeed="13.00" length="10.32" shape="-1.65,884.75 -1.25,881.95 -0.05,879.95 1.95,878.75 4.75,878.35"/>
      </lanes>
   </edge>

   <edge id=":0/11_2" function="internal">
      <lanes>
         <lane id=":0/11_2_0" depart="0" maxspeed="13.00" length="5.00" shape="4.75,881.65 3.39,881.84 2.43,882.42 1.84,883.39 1.65,884.75"/>
      </lanes>
   </edge>

   <edge id=":0/11_3" function="internal">
      <lanes>
         <lane id=":0/11_3_0" depart="0" maxspeed="13.00" length="10.32" shape="4.75,881.65 1.95,881.25 -0.05,880.05 -1.25,878.05 -1.65,875.25"/>
      </lanes>
   </edge>

   <edge id=":0/11_4" function="internal">
      <lanes>
         <lane id=":0/11_4_0" depart="0" maxspeed="13.00" length="5.00" shape="1.65,875.25 1.84,876.61 2.43,877.57 3.39,878.16 4.75,878.35"/>
      </lanes>
   </edge>

   <edge id=":0/11_5" function="internal">
      <lanes>
         <lane id=":0/11_5_0" depart="0" maxspeed="13.00" length="9.50" shape="1.65,875.25 1.65,884.75"/>
      </lanes>
   </edge>

   <edge id=":0/12_0" function="internal">
      <lanes>
         <lane id=":0/12_0_0" depart="0" maxspeed="13.00" length="9.50" shape="-1.65,964.75 -1.65,955.25"/>
      </lanes>
   </edge>

   <edge id=":0/12_1" function="internal">
      <lanes>
         <lane id=":0/12_1_0" depart="0" maxspeed="13.00" length="10.32" shape="-1.65,964.75 -1.25,961.95 -0.05,959.95 1.95,958.75 4.75,958.35"/>
      </lanes>
   </edge>

   <edge id=":0/12_2" function="internal">
      <lanes>
         <lane id=":0/12_2_0" depart="0" maxspeed="13.00" length="5.00" shape="4.75,961.65 3.39,961.84 2.43,962.42 1.84,963.39 1.65,964.75"/>
      </lanes>
   </edge>

   <edge id=":0/12_3" function="internal">
      <lanes>
         <lane id=":0/12_3_0" depart="0" maxspeed="13.00" length="10.32" shape="4.75,961.65 1.95,961.25 -0.05,960.05 -1.25,958.05 -1.65,955.25"/>
      </lanes>
   </edge>

   <edge id=":0/12_4" function="internal">
      <lanes>
         <lane id=":0/12_4_0" depart="0" maxspeed="13.00" length="5.00" shape="1.65,955.25 1.84,956.61 2.43,957.57 3.39,958.16 4.75,958.35"/>
      </lanes>
   </edge>

   <edge id=":0/12_5" function="internal">
      <lanes>
         <lane id=":0/12_5_0" depart="0" maxspeed="13.00" length="9.50" shape="1.65,955.25 1.65,964.75"/>
      </lanes>
   </edge>

   <edge id=":0/13_0" function="internal">
      <lanes>
         <lane id=":0/13_0_0" depart="0" maxspeed="13.00" length="9.50" shape="-1.65,1044.75 -1.65,1035.25"/>
      </lanes>
   </edge>

   <edge id=":0/13_1" function="internal">
      <lanes>
         <lane id=":0/13_1_0" depart="0" maxspeed="13.00" length="10.32" shape="-1.65,1044.75 -1.25,1041.95 -0.05,1039.95 1.95,1038.75 4.75,1038.35"/>
      </lanes>
   </edge>

   <edge id=":0/13_2" function="internal">
      <lanes>
         <lane id=":0/13_2_0" depart="0" maxspeed="13.00" length="5.00" shape="4.75,1041.65 3.39,1041.84 2.43,1042.43 1.84,1043.39 1.65,1044.75"/>
      </lanes>
   </edge>

   <edge id=":0/13_3" function="internal">
      <lanes>
         <lane id=":0/13_3_0" depart="0" maxspeed="13.00" length="10.32" shape="4.75,1041.65 1.95,1041.25 -0.05,1040.05 -1.25,1038.05 -1.65,1035.25"/>
      </lanes>
   </edge>

   <edge id=":0/13_4" function="internal">
      <lanes>
         <lane id=":0/13_4_0" depart="0" maxspeed="13.00" length="5.00" shape="1.65,1035.25 1.84,1036.61 2.43,1037.57 3.39,1038.16 4.75,1038.35"/>
      </lanes>
   </edge>

   <edge id=":0/13_5" function="internal">
      <lanes>
         <lane id=":0/13_5_0" depart="0" maxspeed="13.00" length="9.50" shape="1.65,1035.25 1.65,1044.75"/>
      </lanes>
   </edge>

   <edge id=":0/14_0" function="internal">
      <lanes>
         <lane id=":0/14_0_0" depart="0" maxspeed="13.00" length="9.50" shape="-1.65,1124.75 -1.65,1115.25"/>
      </lanes>
   </edge>

   <edge id=":0/14_1" function="internal">
      <lanes>
         <lane id=":0/14_1_0" depart="0" maxspeed="13.00" length="10.32" shape="-1.65,1124.75 -1.25,1121.95 -0.05,1119.95 1.95,1118.75 4.75,1118.35"/>
      </lanes>
   </edge>

   <edge id=":0/14_2" function="internal">
      <lanes>
         <lane id=":0/14_2_0" depart="0" maxspeed="13.00" length="5.00" shape="4.75,1121.65 3.39,1121.84 2.43,1122.43 1.84,1123.39 1.65,1124.75"/>
      </lanes>
   </edge>

   <edge id=":0/14_3" function="internal">
      <lanes>
         <lane id=":0/14_3_0" depart="0" maxspeed="13.00" length="10.32" shape="4.75,1121.65 1.95,1121.25 -0.05,1120.05 -1.25,1118.05 -1.65,1115.25"/>
      </lanes>
   </edge>

   <edge id=":0/14_4" function="internal">
      <lanes>
         <lane id=":0/14_4_0" depart="0" maxspeed="13.00" length="5.00" shape="1.65,1115.25 1.84,1116.61 2.43,1117.57 3.39,1118.16 4.75,1118.35"/>
      </lanes>
   </edge>

   <edge id=":0/14_5" function="internal">
      <lanes>
         <lane id=":0/14_5_0" depart="0" maxspeed="13.00" length="9.50" shape="1.65,1115.25 1.65,1124.75"/>
      </lanes>
   </edge>

   <edge id=":0/15_0" function="internal">
      <lanes>
         <lane id=":0/15_0_0" depart="0" maxspeed="13.00" length="9.50" shape="-1.65,1204.75 -1.65,1195.25"/>
      </lanes>
   </edge>

   <edge id=":0/15_1" function="internal">
      <lanes>
         <lane id=":0/15_1_0" depart="0" maxspeed="13.00" length="10.32" shape="-1.65,1204.75 -1.25,1201.95 -0.05,1199.95 1.95,1198.75 4.75,1198.35"/>
      </lanes>
   </edge>

   <edge id=":0/15_2" function="internal">
      <lanes>
         <lane id=":0/15_2_0" depart="0" maxspeed="13.00" length="5.00" shape="4.75,1201.65 3.39,1201.84 2.43,1202.43 1.84,1203.39 1.65,1204.75"/>
      </lanes>
   </edge>

   <edge id=":0/15_3" function="internal">
      <lanes>
         <lane id=":0/15_3_0" depart="0" maxspeed="13.00" length="10.32" shape="4.75,1201.65 1.95,1201.25 -0.05,1200.05 -1.25,1198.05 -1.65,1195.25"/>
      </lanes>
   </edge>

   <edge id=":0/15_4" function="internal">
      <lanes>
         <lane id=":0/15_4_0" depart="0" maxspeed="13.00" length="5.00" shape="1.65,1195.25 1.84,1196.61 2.43,1197.57 3.39,1198.16 4.75,1198.35"/>
      </lanes>
   </edge>

   <edge id=":0/15_5" function="internal">
      <lanes>
         <lane id=":0/15_5_0" depart="0" maxspeed="13.00" length="9.50" shape="1.65,1195.25 1.65,1204.75"/>
      </lanes>
   </edge>

   <edge id=":0/16_0" function="internal">
      <lanes>
         <lane id=":0/16_0_0" depart="0" maxspeed="13.00" length="9.50" shape="-1.65,1284.75 -1.65,1275.25"/>
      </lanes>
   </edge>

   <edge id=":0/16_1" function="internal">
      <lanes>
         <lane id=":0/16_1_0" depart="0" maxspeed="13.00" length="10.32" shape="-1.65,1284.75 -1.25,1281.95 -0.05,1279.95 1.95,1278.75 4.75,1278.35"/>
      </lanes>
   </edge>

   <edge id=":0/16_2" function="internal">
      <lanes>
         <lane id=":0/16_2_0" depart="0" maxspeed="13.00" length="5.00" shape="4.75,1281.65 3.39,1281.84 2.43,1282.43 1.84,1283.39 1.65,1284.75"/>
      </lanes>
   </edge>

   <edge id=":0/16_3" function="internal">
      <lanes>
         <lane id=":0/16_3_0" depart="0" maxspeed="13.00" length="10.32" shape="4.75,1281.65 1.95,1281.25 -0.05,1280.05 -1.25,1278.05 -1.65,1275.25"/>
      </lanes>
   </edge>

   <edge id=":0/16_4" function="internal">
      <lanes>
         <lane id=":0/16_4_0" depart="0" maxspeed="13.00" length="5.00" shape="1.65,1275.25 1.84,1276.61 2.43,1277.57 3.39,1278.16 4.75,1278.35"/>
      </lanes>
   </edge>

   <edge id=":0/16_5" function="internal">
      <lanes>
         <lane id=":0/16_5_0" depart="0" maxspeed="13.00" length="9.50" shape="1.65,1275.25 1.65,1284.75"/>
      </lanes>
   </edge>

   <edge id=":0/17_0" function="internal">
      <lanes>
         <lane id=":0/17_0_0" depart="0" maxspeed="13.00" length="9.50" shape="-1.65,1364.75 -1.65,1355.25"/>
      </lanes>
   </edge>

   <edge id=":0/17_1" function="internal">
      <lanes>
         <lane id=":0/17_1_0" depart="0" maxspeed="13.00" length="10.32" shape="-1.65,1364.75 -1.25,1361.95 -0.05,1359.95 1.95,1358.75 4.75,1358.35"/>
      </lanes>
   </edge>

   <edge id=":0/17_2" function="internal">
      <lanes>
         <lane id=":0/17_2_0" depart="0" maxspeed="13.00" length="5.00" shape="4.75,1361.65 3.39,1361.84 2.43,1362.43 1.84,1363.39 1.65,1364.75"/>
      </lanes>
   </edge>

   <edge id=":0/17_3" function="internal">
      <lanes>
         <lane id=":0/17_3_0" depart="0" maxspeed="13.00" length="10.32" shape="4.75,1361.65 1.95,1361.25 -0.05,1360.05 -1.25,1358.05 -1.65,1355.25"/>
      </lanes>
   </edge>

   <edge id=":0/17_4" function="internal">
      <lanes>
         <lane id=":0/17_4_0" depart="0" maxspeed="13.00" length="5.00" shape="1.65,1355.25 1.84,1356.61 2.43,1357.57 3.39,1358.16 4.75,1358.35"/>
      </lanes>
   </edge>

   <edge id=":0/17_5" function="internal">
      <lanes>
         <lane id=":0/17_5_0" depart="0" maxspeed="13.00" length="9.50" shape="1.65,1355.25 1.65,1364.75"/>
      </lanes>
   </edge>

   <edge id=":0/18_0" function="internal">
      <lanes>
         <lane id=":0/18_0_0" depart="0" maxspeed="13.00" length="9.50" shape="-1.65,1444.75 -1.65,1435.25"/>
      </lanes>
   </edge>

   <edge id=":0/18_1" function="internal">
      <lanes>
         <lane id=":0/18_1_0" depart="0" maxspeed="13.00" length="10.32" shape="-1.65,1444.75 -1.25,1441.95 -0.05,1439.95 1.95,1438.75 4.75,1438.35"/>
      </lanes>
   </edge>

   <edge id=":0/18_2" function="internal">
      <lanes>
         <lane id=":0/18_2_0" depart="0" maxspeed="13.00" length="5.00" shape="4.75,1441.65 3.39,1441.84 2.43,1442.43 1.84,1443.39 1.65,1444.75"/>
      </lanes>
   </edge>

   <edge id=":0/18_3" function="internal">
      <lanes>
         <lane id=":0/18_3_0" depart="0" maxspeed="13.00" length="10.32" shape="4.75,1441.65 1.95,1441.25 -0.05,1440.05 -1.25,1438.05 -1.65,1435.25"/>
      </lanes>
   </edge>

   <edge id=":0/18_4" function="internal">
      <lanes>
         <lane id=":0/18_4_0" depart="0" maxspeed="13.00" length="5.00" shape="1.65,1435.25 1.84,1436.61 2.43,1437.57 3.39,1438.16 4.75,1438.35"/>
      </lanes>
   </edge>

   <edge id=":0/18_5" function="internal">
      <lanes>
         <lane id=":0/18_5_0" depart="0" maxspeed="13.00" length="9.50" shape="1.65,1435.25 1.65,1444.75"/>
      </lanes>
   </edge>

   <edge id=":0/19_0" function="internal">
      <lanes>
         <lane id=":0/19_0_0" depart="0" maxspeed="13.00" length="9.50" shape="-1.65,1524.75 -1.65,1515.25"/>
      </lanes>
   </edge>

   <edge id=":0/19_1" function="internal">
      <lanes>
         <lane id=":0/19_1_0" depart="0" maxspeed="13.00" length="10.32" shape="-1.65,1524.75 -1.25,1521.95 -0.05,1519.95 1.95,1518.75 4.75,1518.35"/>
      </lanes>
   </edge>

   <edge id=":0/19_2" function="internal">
      <lanes>
         <lane id=":0/19_2_0" depart="0" maxspeed="13.00" length="5.00" shape="4.75,1521.65 3.39,1521.84 2.43,1522.43 1.84,1523.39 1.65,1524.75"/>
      </lanes>
   </edge>

   <edge id=":0/19_3" function="internal">
      <lanes>
         <lane id=":0/19_3_0" depart="0" maxspeed="13.00" length="10.32" shape="4.75,1521.65 1.95,1521.25 -0.05,1520.05 -1.25,1518.05 -1.65,1515.25"/>
      </lanes>
   </edge>

   <edge id=":0/19_4" function="internal">
      <lanes>
         <lane id=":0/19_4_0" depart="0" maxspeed="13.00" length="5.00" shape="1.65,1515.25 1.84,1516.61 2.43,1517.57 3.39,1518.16 4.75,1518.35"/>
      </lanes>
   </edge>

   <edge id=":0/19_5" function="internal">
      <lanes>
         <lane id=":0/19_5_0" depart="0" maxspeed="13.00" length="9.50" shape="1.65,1515.25 1.65,1524.75"/>
      </lanes>
   </edge>

   <edge id=":0/2_0" function="internal">
      <lanes>
         <lane id=":0/2_0_0" depart="0" maxspeed="13.00" length="9.50" shape="-1.65,164.75 -1.65,155.25"/>
      </lanes>
   </edge>

   <edge id=":0/2_1" function="internal">
      <lanes>
         <lane id=":0/2_1_0" depart="0" maxspeed="13.00" length="10.32" shape="-1.65,164.75 -1.25,161.95 -0.05,159.95 1.95,158.75 4.75,158.35"/>
      </lanes>
   </edge>

   <edge id=":0/2_2" function="internal">
      <lanes>
         <lane id=":0/2_2_0" depart="0" maxspeed="13.00" length="5.00" shape="4.75,161.65 3.39,161.84 2.43,162.43 1.84,163.39 1.65,164.75"/>
      </lanes>
   </edge>

   <edge id=":0/2_3" function="internal">
      <lanes>
         <lane id=":0/2_3_0" depart="0" maxspeed="13.00" length="10.32" shape="4.75,161.65 1.95,161.25 -0.05,160.05 -1.25,158.05 -1.65,155.25"/>
      </lanes>
   </edge>

   <edge id=":0/2_4" function="internal">
      <lanes>
         <lane id=":0/2_4_0" depart="0" maxspeed="13.00" length="5.00" shape="1.65,155.25 1.84,156.61 2.43,157.57 3.39,158.16 4.75,158.35"/>
      </lanes>
   </edge>

   <edge id=":0/2_5" function="internal">
      <lanes>
         <lane id=":0/2_5_0" depart="0" maxspeed="13.00" length="9.50" shape="1.65,155.25 1.65,164.75"/>
      </lanes>
   </edge>

   <edge id=":0/20_0" function="internal">
      <lanes>
         <lane id=":0/20_0_0" depart="0" maxspeed="13.00" length="9.50" shape="-1.65,1604.75 -1.65,1595.25"/>
      </lanes>
   </edge>

   <edge id=":0/20_1" function="internal">
      <lanes>
         <lane id=":0/20_1_0" depart="0" maxspeed="13.00" length="10.32" shape="-1.65,1604.75 -1.25,1601.95 -0.05,1599.95 1.95,1598.75 4.75,1598.35"/>
      </lanes>
   </edge>

   <edge id=":0/20_2" function="internal">
      <lanes>
         <lane id=":0/20_2_0" depart="0" maxspeed="13.00" length="5.00" shape="4.75,1601.65 3.39,1601.84 2.43,1602.43 1.84,1603.39 1.65,1604.75"/>
      </lanes>
   </edge>

   <edge id=":0/20_3" function="internal">
      <lanes>
         <lane id=":0/20_3_0" depart="0" maxspeed="13.00" length="10.32" shape="4.75,1601.65 1.95,1601.25 -0.05,1600.05 -1.25,1598.05 -1.65,1595.25"/>
      </lanes>
   </edge>

   <edge id=":0/20_4" function="internal">
      <lanes>
         <lane id=":0/20_4_0" depart="0" maxspeed="13.00" length="5.00" shape="1.65,1595.25 1.84,1596.61 2.43,1597.57 3.39,1598.16 4.75,1598.35"/>
      </lanes>
   </edge>

   <edge id=":0/20_5" function="internal">
      <lanes>
         <lane id=":0/20_5_0" depart="0" maxspeed="13.00" length="9.50" shape="1.65,1595.25 1.65,1604.75"/>
      </lanes>
   </edge>

   <edge id=":0/21_0" function="internal">
      <lanes>
         <lane id=":0/21_0_0" depart="0" maxspeed="13.00" length="9.50" shape="-1.65,1684.75 -1.65,1675.25"/>
      </lanes>
   </edge>

   <edge id=":0/21_1" function="internal">
      <lanes>
         <lane id=":0/21_1_0" depart="0" maxspeed="13.00" length="10.32" shape="-1.65,1684.75 -1.25,1681.95 -0.05,1679.95 1.95,1678.75 4.75,1678.35"/>
      </lanes>
   </edge>

   <edge id=":0/21_2" function="internal">
      <lanes>
         <lane id=":0/21_2_0" depart="0" maxspeed="13.00" length="5.00" shape="4.75,1681.65 3.39,1681.84 2.43,1682.43 1.84,1683.39 1.65,1684.75"/>
      </lanes>
   </edge>

   <edge id=":0/21_3" function="internal">
      <lanes>
         <lane id=":0/21_3_0" depart="0" maxspeed="13.00" length="10.32" shape="4.75,1681.65 1.95,1681.25 -0.05,1680.05 -1.25,1678.05 -1.65,1675.25"/>
      </lanes>
   </edge>

   <edge id=":0/21_4" function="internal">
      <lanes>
         <lane id=":0/21_4_0" depart="0" maxspeed="13.00" length="5.00" shape="1.65,1675.25 1.84,1676.61 2.43,1677.57 3.39,1678.16 4.75,1678.35"/>
      </lanes>
   </edge>

   <edge id=":0/21_5" function="internal">
      <lanes>
         <lane id=":0/21_5_0" depart="0" maxspeed="13.00" length="9.50" shape="1.65,1675.25 1.65,1684.75"/>
      </lanes>
   </edge>

   <edge id=":0/22_0" function="internal">
      <lanes>
         <lane id=":0/22_0_0" depart="0" maxspeed="13.00" length="9.50" shape="-1.65,1764.75 -1.65,1755.25"/>
      </lanes>
   </edge>

   <edge id=":0/22_1" function="internal">
      <lanes>
         <lane id=":0/22_1_0" depart="0" maxspeed="13.00" length="10.32" shape="-1.65,1764.75 -1.25,1761.95 -0.05,1759.95 1.95,1758.75 4.75,1758.35"/>
      </lanes>
   </edge>

   <edge id=":0/22_2" function="internal">
      <lanes>
         <lane id=":0/22_2_0" depart="0" maxspeed="13.00" length="5.00" shape="4.75,1761.65 3.39,1761.84 2.43,1762.43 1.84,1763.39 1.65,1764.75"/>
      </lanes>
   </edge>

   <edge id=":0/22_3" function="internal">
      <lanes>
         <lane id=":0/22_3_0" depart="0" maxspeed="13.00" length="10.32" shape="4.75,1761.65 1.95,1761.25 -0.05,1760.05 -1.25,1758.05 -1.65,1755.25"/>
      </lanes>
   </edge>

   <edge id=":0/22_4" function="internal">
      <lanes>
         <lane id=":0/22_4_0" depart="0" maxspeed="13.00" length="5.00" shape="1.65,1755.25 1.84,1756.61 2.43,1757.57 3.39,1758.16 4.75,1758.35"/>
      </lanes>
   </edge>

   <edge id=":0/22_5" function="internal">
      <lanes>
         <lane id=":0/22_5_0" depart="0" maxspeed="13.00" length="9.50" shape="1.65,1755.25 1.65,1764.75"/>
      </lanes>
   </edge>

   <edge id=":0/23_0" function="internal">
      <lanes>
         <lane id=":0/23_0_0" depart="0" maxspeed="13.00" length="9.50" shape="-1.65,1844.75 -1.65,1835.25"/>
      </lanes>
   </edge>

   <edge id=":0/23_1" function="internal">
      <lanes>
         <lane id=":0/23_1_0" depart="0" maxspeed="13.00" length="10.32" shape="-1.65,1844.75 -1.25,1841.95 -0.05,1839.95 1.95,1838.75 4.75,1838.35"/>
      </lanes>
   </edge>

   <edge id=":0/23_2" function="internal">
      <lanes>
         <lane id=":0/23_2_0" depart="0" maxspeed="13.00" length="5.00" shape="4.75,1841.65 3.39,1841.84 2.43,1842.43 1.84,1843.39 1.65,1844.75"/>
      </lanes>
   </edge>

   <edge id=":0/23_3" function="internal">
      <lanes>
         <lane id=":0/23_3_0" depart="0" maxspeed="13.00" length="10.32" shape="4.75,1841.65 1.95,1841.25 -0.05,1840.05 -1.25,1838.05 -1.65,1835.25"/>
      </lanes>
   </edge>

   <edge id=":0/23_4" function="internal">
      <lanes>
         <lane id=":0/23_4_0" depart="0" maxspeed="13.00" length="5.00" shape="1.65,1835.25 1.84,1836.61 2.43,1837.57 3.39,1838.16 4.75,1838.35"/>
      </lanes>
   </edge>

   <edge id=":0/23_5" function="internal">
      <lanes>
         <lane id=":0/23_5_0" depart="0" maxspeed="13.00" length="9.50" shape="1.65,1835.25 1.65,1844.75"/>
      </lanes>
   </edge>

   <edge id=":0/24_0" function="internal">
      <lanes>
         <lane id=":0/24_0_0" depart="0" maxspeed="13.00" length="9.50" shape="-1.65,1924.75 -1.65,1915.25"/>
      </lanes>
   </edge>

   <edge id=":0/24_1" function="internal">
      <lanes>
         <lane id=":0/24_1_0" depart="0" maxspeed="13.00" length="10.32" shape="-1.65,1924.75 -1.25,1921.95 -0.05,1919.95 1.95,1918.75 4.75,1918.35"/>
      </lanes>
   </edge>

   <edge id=":0/24_2" function="internal">
      <lanes>
         <lane id=":0/24_2_0" depart="0" maxspeed="13.00" length="5.00" shape="4.75,1921.65 3.39,1921.84 2.43,1922.43 1.84,1923.39 1.65,1924.75"/>
      </lanes>
   </edge>

   <edge id=":0/24_3" function="internal">
      <lanes>
         <lane id=":0/24_3_0" depart="0" maxspeed="13.00" length="10.32" shape="4.75,1921.65 1.95,1921.25 -0.05,1920.05 -1.25,1918.05 -1.65,1915.25"/>
      </lanes>
   </edge>

   <edge id=":0/24_4" function="internal">
      <lanes>
         <lane id=":0/24_4_0" depart="0" maxspeed="13.00" length="5.00" shape="1.65,1915.25 1.84,1916.61 2.43,1917.57 3.39,1918.16 4.75,1918.35"/>
      </lanes>
   </edge>

   <edge id=":0/24_5" function="internal">
      <lanes>
         <lane id=":0/24_5_0" depart="0" maxspeed="13.00" length="9.50" shape="1.65,1915.25 1.65,1924.75"/>
      </lanes>
   </edge>

   <edge id=":0/25_0" function="internal">
      <lanes>
         <lane id=":0/25_0_0" depart="0" maxspeed="13.00" length="9.50" shape="-1.65,2004.75 -1.65,1995.25"/>
      </lanes>
   </edge>

   <edge id=":0/25_1" function="internal">
      <lanes>
         <lane id=":0/25_1_0" depart="0" maxspeed="13.00" length="10.32" shape="-1.65,2004.75 -1.25,2001.95 -0.05,1999.95 1.95,1998.75 4.75,1998.35"/>
      </lanes>
   </edge>

   <edge id=":0/25_2" function="internal">
      <lanes>
         <lane id=":0/25_2_0" depart="0" maxspeed="13.00" length="5.00" shape="4.75,2001.65 3.39,2001.84 2.43,2002.43 1.84,2003.39 1.65,2004.75"/>
      </lanes>
   </edge>

   <edge id=":0/25_3" function="internal">
      <lanes>
         <lane id=":0/25_3_0" depart="0" maxspeed="13.00" length="10.32" shape="4.75,2001.65 1.95,2001.25 -0.05,2000.05 -1.25,1998.05 -1.65,1995.25"/>
      </lanes>
   </edge>

   <edge id=":0/25_4" function="internal">
      <lanes>
         <lane id=":0/25_4_0" depart="0" maxspeed="13.00" length="5.00" shape="1.65,1995.25 1.84,1996.61 2.43,1997.57 3.39,1998.16 4.75,1998.35"/>
      </lanes>
   </edge>

   <edge id=":0/25_5" function="internal">
      <lanes>
         <lane id=":0/25_5_0" depart="0" maxspeed="13.00" length="9.50" shape="1.65,1995.25 1.65,2004.75"/>
      </lanes>
   </edge>

   <edge id=":0/26_0" function="internal">
      <lanes>
         <lane id=":0/26_0_0" depart="0" maxspeed="13.00" length="7.90" shape="3.25,2081.65 1.11,2081.34 -0.43,2080.43 -1.34,2078.89 -1.65,2076.75"/>
      </lanes>
   </edge>

   <edge id=":0/26_1" function="internal">
      <lanes>
         <lane id=":0/26_1_0" depart="0" maxspeed="13.00" length="2.58" shape="1.65,2076.75 1.75,2077.45 2.05,2077.95 2.55,2078.25 3.25,2078.35"/>
      </lanes>
   </edge>

   <edge id=":0/3_0" function="internal">
      <lanes>
         <lane id=":0/3_0_0" depart="0" maxspeed="13.00" length="9.50" shape="-1.65,244.75 -1.65,235.25"/>
      </lanes>
   </edge>

   <edge id=":0/3_1" function="internal">
      <lanes>
         <lane id=":0/3_1_0" depart="0" maxspeed="13.00" length="10.32" shape="-1.65,244.75 -1.25,241.95 -0.05,239.95 1.95,238.75 4.75,238.35"/>
      </lanes>
   </edge>

   <edge id=":0/3_2" function="internal">
      <lanes>
         <lane id=":0/3_2_0" depart="0" maxspeed="13.00" length="5.00" shape="4.75,241.65 3.39,241.84 2.43,242.43 1.84,243.39 1.65,244.75"/>
      </lanes>
   </edge>

   <edge id=":0/3_3" function="internal">
      <lanes>
         <lane id=":0/3_3_0" depart="0" maxspeed="13.00" length="10.32" shape="4.75,241.65 1.95,241.25 -0.05,240.05 -1.25,238.05 -1.65,235.25"/>
      </lanes>
   </edge>

   <edge id=":0/3_4" function="internal">
      <lanes>
         <lane id=":0/3_4_0" depart="0" maxspeed="13.00" length="5.00" shape="1.65,235.25 1.84,236.61 2.43,237.58 3.39,238.16 4.75,238.35"/>
      </lanes>
   </edge>

   <edge id=":0/3_5" function="internal">
      <lanes>
         <lane id=":0/3_5_0" depart="0" maxspeed="13.00" length="9.50" shape="1.65,235.25 1.65,244.75"/>
      </lanes>
   </edge>

   <edge id=":0/4_0" function="internal">
      <lanes>
         <lane id=":0/4_0_0" depart="0" maxspeed="13.00" length="9.50" shape="-1.65,324.75 -1.65,315.25"/>
      </lanes>
   </edge>

   <edge id=":0/4_1" function="internal">
      <lanes>
         <lane id=":0/4_1_0" depart="0" maxspeed="13.00" length="10.32" shape="-1.65,324.75 -1.25,321.95 -0.05,319.95 1.95,318.75 4.75,318.35"/>
      </lanes>
   </edge>

   <edge id=":0/4_2" function="internal">
      <lanes>
         <lane id=":0/4_2_0" depart="0" maxspeed="13.00" length="5.00" shape="4.75,321.65 3.39,321.84 2.43,322.42 1.84,323.39 1.65,324.75"/>
      </lanes>
   </edge>

   <edge id=":0/4_3" function="internal">
      <lanes>
         <lane id=":0/4_3_0" depart="0" maxspeed="13.00" length="10.32" shape="4.75,321.65 1.95,321.25 -0.05,320.05 -1.25,318.05 -1.65,315.25"/>
      </lanes>
   </edge>

   <edge id=":0/4_4" function="internal">
      <lanes>
         <lane id=":0/4_4_0" depart="0" maxspeed="13.00" length="5.00" shape="1.65,315.25 1.84,316.61 2.43,317.58 3.39,318.16 4.75,318.35"/>
      </lanes>
   </edge>

   <edge id=":0/4_5" function="internal">
      <lanes>
         <lane id=":0/4_5_0" depart="0" maxspeed="13.00" length="9.50" shape="1.65,315.25 1.65,324.75"/>
      </lanes>
   </edge>

   <edge id=":0/5_0" function="internal">
      <lanes>
         <lane id=":0/5_0_0" depart="0" maxspeed="13.00" length="9.50" shape="-1.65,404.75 -1.65,395.25"/>
      </lanes>
   </edge>

   <edge id=":0/5_1" function="internal">
      <lanes>
         <lane id=":0/5_1_0" depart="0" maxspeed="13.00" length="10.32" shape="-1.65,404.75 -1.25,401.95 -0.05,399.95 1.95,398.75 4.75,398.35"/>
      </lanes>
   </edge>

   <edge id=":0/5_2" function="internal">
      <lanes>
         <lane id=":0/5_2_0" depart="0" maxspeed="13.00" length="5.00" shape="4.75,401.65 3.39,401.84 2.43,402.42 1.84,403.39 1.65,404.75"/>
      </lanes>
   </edge>

   <edge id=":0/5_3" function="internal">
      <lanes>
         <lane id=":0/5_3_0" depart="0" maxspeed="13.00" length="10.32" shape="4.75,401.65 1.95,401.25 -0.05,400.05 -1.25,398.05 -1.65,395.25"/>
      </lanes>
   </edge>

   <edge id=":0/5_4" function="internal">
      <lanes>
         <lane id=":0/5_4_0" depart="0" maxspeed="13.00" length="5.00" shape="1.65,395.25 1.84,396.61 2.43,397.58 3.39,398.16 4.75,398.35"/>
      </lanes>
   </edge>

   <edge id=":0/5_5" function="internal">
      <lanes>
         <lane id=":0/5_5_0" depart="0" maxspeed="13.00" length="9.50" shape="1.65,395.25 1.65,404.75"/>
      </lanes>
   </edge>

   <edge id=":0/6_0" function="internal">
      <lanes>
         <lane id=":0/6_0_0" depart="0" maxspeed="13.00" length="9.50" shape="-1.65,484.75 -1.65,475.25"/>
      </lanes>
   </edge>

   <edge id=":0/6_1" function="internal">
      <lanes>
         <lane id=":0/6_1_0" depart="0" maxspeed="13.00" length="10.32" shape="-1.65,484.75 -1.25,481.95 -0.05,479.95 1.95,478.75 4.75,478.35"/>
      </lanes>
   </edge>

   <edge id=":0/6_2" function="internal">
      <lanes>
         <lane id=":0/6_2_0" depart="0" maxspeed="13.00" length="5.00" shape="4.75,481.65 3.39,481.84 2.43,482.42 1.84,483.39 1.65,484.75"/>
      </lanes>
   </edge>

   <edge id=":0/6_3" function="internal">
      <lanes>
         <lane id=":0/6_3_0" depart="0" maxspeed="13.00" length="10.32" shape="4.75,481.65 1.95,481.25 -0.05,480.05 -1.25,478.05 -1.65,475.25"/>
      </lanes>
   </edge>

   <edge id=":0/6_4" function="internal">
      <lanes>