<?xml version="1.0"?>

<!-- generated on Wed Sep 15 17:38:00 2010 by SUMO duarouter Version svn
<configuration>

    <input>
        <net-file value="grid.net.xml"/>
        <trip-defs value="trips.trips.xml"/>
    </input>

    <output>
        <output-file value="grid.rou.xml"/>
    </output>

</configuration>
-->

<routes>
    <vehicle id="t0" depart="0.00">
	    <route edges="0/15to1/15 1/15to2/15 2/15to3/15 3/15to4/15 4/15to5/15 5/15to6/15 6/15to7/15"/>
	</vehicle>

    <vehicle id="t1" depart="0.20">
	    <route edges="7/15to6/15 6/15to5/15 5/15to4/15 4/15to3/15 3/15to2/15 2/15to1/15 1/15to0/15"/>
    </vehicle>

    <vehicle id="t2" depart="0.60">
	    <route edges="0/15to1/15 1/15to2/15 2/15to3/15 3/15to4/15 4/15to5/15 5/15to6/15 6/15to7/15"/>
	</vehicle>

    <vehicle id="t3" depart="1">
	    <route edges="7/15to6/15 6/15to5/15 5/15to4/15 4/15to3/15 3/15to2/15 2/15to1/15 1/15to0/15"/>
    </vehicle>
</routes>
