[General]
;ini-warnings = true
network = ccSim
sim-time-limit = 50s

[Tkenv]
bitmap-path="..\..\bitmaps"
default-run=1
use-mainwindow = yes
print-banners = yes
slowexec-delay = 300ms
update-freq-fast = 10
update-freq-express = 100
breakpoints-enabled = yes

[Cmdenv]
runs-to-execute = 1, 2, 3, 4, 5
# runs-to-execute = 1
event-banners = no
module-messages = yes

[DisplayStrings]

###############################################################################
#                 Configuration for Run 1 - 2D without torus                  #
###############################################################################
[Run 1]

ccSim.world.useTorus = 0
ccSim.world.use2D = 1
ccSim.playgroundSizeZ = 0

# Horizontal aligned node testing
#BC-Node
ccSim.node[0].phyLayer = "ConnectedBCNodePhyLayer"
ccSim.node[0].mobility.x = 277
ccSim.node[0].mobility.y = 277

#Nodes right of BC-Node
#r-node in same cell of bc-node
ccSim.node[1].phyLayer = "ConnectedRNodePhyLayer"
ccSim.node[1].mobility.x = 367
ccSim.node[1].mobility.y = 277

#r-node in right cell of bc-node (in range)
ccSim.node[2].phyLayer = "ConnectedRNodePhyLayer"
ccSim.node[2].mobility.x = 368
ccSim.node[2].mobility.y = 277

#r-node in right cell of bc-node (out of range)
ccSim.node[3].phyLayer = "NotConnectedRNodePhyLayer"
ccSim.node[3].mobility.x = 369
ccSim.node[3].mobility.y = 277

#Nodes left of BC-Node
#r-node in same cell of bc-node
ccSim.node[4].phyLayer = "ConnectedRNodePhyLayer"
ccSim.node[4].mobility.x = 276
ccSim.node[4].mobility.y = 277

#r-node in left cell of bc-node (in range)
ccSim.node[5].phyLayer = "ConnectedRNodePhyLayer"
ccSim.node[5].mobility.x = 200
ccSim.node[5].mobility.y = 277

#r-node in left cell of bc-node (out of range)
ccSim.node[6].phyLayer = "NotConnectedRNodePhyLayer"
ccSim.node[6].mobility.x = 184
ccSim.node[6].mobility.y = 277

#Nodes below BC-Node
#r-node in same cell of bc-node
ccSim.node[7].phyLayer = "ConnectedRNodePhyLayer"
ccSim.node[7].mobility.x = 277
ccSim.node[7].mobility.y = 367

#r-node in lower cell of bc-node (in range)
ccSim.node[8].phyLayer = "ConnectedRNodePhyLayer"
ccSim.node[8].mobility.x = 277
ccSim.node[8].mobility.y = 368

#r-node in lower cell of bc-node (out of range)
ccSim.node[9].phyLayer = "NotConnectedRNodePhyLayer"
ccSim.node[9].mobility.x = 277
ccSim.node[9].mobility.y = 369

#Nodes above of BC-Node
#r-node in same cell of bc-node
ccSim.node[10].phyLayer = "ConnectedRNodePhyLayer"
ccSim.node[10].mobility.x = 277
ccSim.node[10].mobility.y = 276

#r-node in left cell of bc-node (in range)
ccSim.node[11].phyLayer = "ConnectedRNodePhyLayer"
ccSim.node[11].mobility.x = 277
ccSim.node[11].mobility.y = 200

#r-node in left cell of bc-node (out of range)
ccSim.node[12].phyLayer = "NotConnectedRNodePhyLayer"
ccSim.node[12].mobility.x = 277
ccSim.node[12].mobility.y = 184

#Nodes below right of BC-Node
#r-node in same cell of bc-node
ccSim.node[13].phyLayer = "ConnectedRNodePhyLayer"
ccSim.node[13].mobility.x = 341
ccSim.node[13].mobility.y = 341

#r-node in same cell of bc-node (in range)
ccSim.node[14].phyLayer = "NotConnectedRNodePhyLayer"
ccSim.node[14].mobility.x = 342
ccSim.node[14].mobility.y = 342

#r-node in lower-right cell of bc-node (out of range)
ccSim.node[15].phyLayer = "NotConnectedRNodePhyLayer"
ccSim.node[15].mobility.x = 369
ccSim.node[15].mobility.y = 369

#Nodes above left of BC-Node
#r-node in same cell of bc-node
ccSim.node[16].phyLayer = "ConnectedRNodePhyLayer"
ccSim.node[16].mobility.x = 276
ccSim.node[16].mobility.y = 276

#r-node in upper left cell of bc-node (in range)
ccSim.node[17].phyLayer = "ConnectedRNodePhyLayer"
ccSim.node[17].mobility.x = 213
ccSim.node[17].mobility.y = 213

#r-node in upper left cell of bc-node (out of range)
ccSim.node[18].phyLayer = "NotConnectedRNodePhyLayer"
ccSim.node[18].mobility.x = 211
ccSim.node[18].mobility.y = 211

#Nodes below left of BC-Node
#r-node in same cell of bc-node
ccSim.node[19].phyLayer = "ConnectedRNodePhyLayer"
ccSim.node[19].mobility.x = 276
ccSim.node[19].mobility.y = 278

#r-node in lower left cell of bc-node (in range)
ccSim.node[20].phyLayer = "ConnectedRNodePhyLayer"
ccSim.node[20].mobility.x = 213
ccSim.node[20].mobility.y = 341

#r-node in lower left cell of bc-node (out of range)
ccSim.node[21].phyLayer = "NotConnectedRNodePhyLayer"
ccSim.node[21].mobility.x = 211
ccSim.node[21].mobility.y = 343

#Nodes above right of BC-Node
#r-node in same cell of bc-node
ccSim.node[22].phyLayer = "ConnectedRNodePhyLayer"
ccSim.node[22].mobility.x = 341
ccSim.node[22].mobility.y = 276

#r-node in upper right cell of bc-node (in range)
ccSim.node[23].phyLayer = "ConnectedRNodePhyLayer"
ccSim.node[23].mobility.x = 342
ccSim.node[23].mobility.y = 275

#r-node in upper right cell of bc-node (out of range)
ccSim.node[24].phyLayer = "NotConnectedRNodePhyLayer"
ccSim.node[24].mobility.x = 369
ccSim.node[24].mobility.y = 211


#connections over border
#upper border
#BC-Node
ccSim.node[25].phyLayer = "NotConnectedBCNodePhyLayer"
ccSim.node[25].mobility.x = 92
ccSim.node[25].mobility.y = 0

#r-node
ccSim.node[26].phyLayer = "NotConnectedRNodePhyLayer"
ccSim.node[26].mobility.x = 92
ccSim.node[26].mobility.y = 499

#lower border
#BC-Node
ccSim.node[27].phyLayer = "NotConnectedBCNodePhyLayer"
ccSim.node[27].mobility.x = 400
ccSim.node[27].mobility.y = 499

#r-node
ccSim.node[28].phyLayer = "NotConnectedRNodePhyLayer"
ccSim.node[28].mobility.x = 400
ccSim.node[28].mobility.y = 0

#left border
#BC-Node
ccSim.node[29].phyLayer = "NotConnectedBCNodePhyLayer"
ccSim.node[29].mobility.x = 0
ccSim.node[29].mobility.y = 92

#r-node
ccSim.node[30].phyLayer = "NotConnectedRNodePhyLayer"
ccSim.node[30].mobility.x = 499
ccSim.node[30].mobility.y = 92

#right border
#BC-Node
ccSim.node[31].phyLayer = "NotConnectedBCNodePhyLayer"
ccSim.node[31].mobility.x = 499
ccSim.node[31].mobility.y = 400

#r-node
ccSim.node[32].phyLayer = "NotConnectedRNodePhyLayer"
ccSim.node[32].mobility.x = 0
ccSim.node[32].mobility.y = 400


###############################################################################
#                 Configuration for Run 2 - 2D with torus                     #
###############################################################################
[Run 2]

ccSim.world.useTorus = 1
ccSim.world.use2D = 1
ccSim.playgroundSizeZ = 0

# Horizontal aligned node testing
#BC-Node
ccSim.node[0].phyLayer = "ConnectedBCNodePhyLayer"
ccSim.node[0].mobility.x = 277
ccSim.node[0].mobility.y = 277

#Nodes right of BC-Node
#r-node in same cell of bc-node
ccSim.node[1].phyLayer = "ConnectedRNodePhyLayer"
ccSim.node[1].mobility.x = 367
ccSim.node[1].mobility.y = 277

#r-node in right cell of bc-node (in range)
ccSim.node[2].phyLayer = "ConnectedRNodePhyLayer"
ccSim.node[2].mobility.x = 368
ccSim.node[2].mobility.y = 277

#r-node in right cell of bc-node (out of range)
ccSim.node[3].phyLayer = "NotConnectedRNodePhyLayer"
ccSim.node[3].mobility.x = 369
ccSim.node[3].mobility.y = 277

#Nodes left of BC-Node
#r-node in same cell of bc-node
ccSim.node[4].phyLayer = "ConnectedRNodePhyLayer"
ccSim.node[4].mobility.x = 276
ccSim.node[4].mobility.y = 277

#r-node in left cell of bc-node (in range)
ccSim.node[5].phyLayer = "ConnectedRNodePhyLayer"
ccSim.node[5].mobility.x = 200
ccSim.node[5].mobility.y = 277

#r-node in left cell of bc-node (out of range)
ccSim.node[6].phyLayer = "NotConnectedRNodePhyLayer"
ccSim.node[6].mobility.x = 184
ccSim.node[6].mobility.y = 277

#Nodes below BC-Node
#r-node in same cell of bc-node
ccSim.node[7].phyLayer = "ConnectedRNodePhyLayer"
ccSim.node[7].mobility.x = 277
ccSim.node[7].mobility.y = 367

#r-node in lower cell of bc-node (in range)
ccSim.node[8].phyLayer = "ConnectedRNodePhyLayer"
ccSim.node[8].mobility.x = 277
ccSim.node[8].mobility.y = 368

#r-node in lower cell of bc-node (out of range)
ccSim.node[9].phyLayer = "NotConnectedRNodePhyLayer"
ccSim.node[9].mobility.x = 277
ccSim.node[9].mobility.y = 369

#Nodes above of BC-Node
#r-node in same cell of bc-node
ccSim.node[10].phyLayer = "ConnectedRNodePhyLayer"
ccSim.node[10].mobility.x = 277
ccSim.node[10].mobility.y = 276

#r-node in left cell of bc-node (in range)
ccSim.node[11].phyLayer = "ConnectedRNodePhyLayer"
ccSim.node[11].mobility.x = 277
ccSim.node[11].mobility.y = 200

#r-node in left cell of bc-node (out of range)
ccSim.node[12].phyLayer = "NotConnectedRNodePhyLayer"
ccSim.node[12].mobility.x = 277
ccSim.node[12].mobility.y = 184

#Nodes below right of BC-Node
#r-node in same cell of bc-node
ccSim.node[13].phyLayer = "ConnectedRNodePhyLayer"
ccSim.node[13].mobility.x = 341
ccSim.node[13].mobility.y = 341

#r-node in same cell of bc-node (in range)
ccSim.node[14].phyLayer = "NotConnectedRNodePhyLayer"
ccSim.node[14].mobility.x = 342
ccSim.node[14].mobility.y = 342

#r-node in lower-right cell of bc-node (out of range)
ccSim.node[15].phyLayer = "NotConnectedRNodePhyLayer"
ccSim.node[15].mobility.x = 369
ccSim.node[15].mobility.y = 369

#Nodes above left of BC-Node
#r-node in same cell of bc-node
ccSim.node[16].phyLayer = "ConnectedRNodePhyLayer"
ccSim.node[16].mobility.x = 276
ccSim.node[16].mobility.y = 276

#r-node in upper left cell of bc-node (in range)
ccSim.node[17].phyLayer = "ConnectedRNodePhyLayer"
ccSim.node[17].mobility.x = 213
ccSim.node[17].mobility.y = 213

#r-node in upper left cell of bc-node (out of range)
ccSim.node[18].phyLayer = "NotConnectedRNodePhyLayer"
ccSim.node[18].mobility.x = 211
ccSim.node[18].mobility.y = 211

#Nodes below left of BC-Node
#r-node in same cell of bc-node
ccSim.node[19].phyLayer = "ConnectedRNodePhyLayer"
ccSim.node[19].mobility.x = 276
ccSim.node[19].mobility.y = 278

#r-node in lower left cell of bc-node (in range)
ccSim.node[20].phyLayer = "ConnectedRNodePhyLayer"
ccSim.node[20].mobility.x = 213
ccSim.node[20].mobility.y = 341

#r-node in lower left cell of bc-node (out of range)
ccSim.node[21].phyLayer = "NotConnectedRNodePhyLayer"
ccSim.node[21].mobility.x = 211
ccSim.node[21].mobility.y = 343

#Nodes above right of BC-Node
#r-node in same cell of bc-node
ccSim.node[22].phyLayer = "ConnectedRNodePhyLayer"
ccSim.node[22].mobility.x = 341
ccSim.node[22].mobility.y = 276

#r-node in upper right cell of bc-node (in range)
ccSim.node[23].phyLayer = "ConnectedRNodePhyLayer"
ccSim.node[23].mobility.x = 342
ccSim.node[23].mobility.y = 275

#r-node in upper right cell of bc-node (out of range)
ccSim.node[24].phyLayer = "NotConnectedRNodePhyLayer"
ccSim.node[24].mobility.x = 369
ccSim.node[24].mobility.y = 211


#connections over border
#upper border
#BC-Node
ccSim.node[25].phyLayer = "ConnectedBCNodePhyLayer"
ccSim.node[25].mobility.x = 92
ccSim.node[25].mobility.y = 0

#r-node
ccSim.node[26].phyLayer = "ConnectedRNodePhyLayer"
ccSim.node[26].mobility.x = 92
ccSim.node[26].mobility.y = 499

#lower border
#BC-Node
ccSim.node[27].phyLayer = "ConnectedBCNodePhyLayer"
ccSim.node[27].mobility.x = 400
ccSim.node[27].mobility.y = 499

#r-node
ccSim.node[28].phyLayer = "ConnectedRNodePhyLayer"
ccSim.node[28].mobility.x = 400
ccSim.node[28].mobility.y = 0

#left border
#BC-Node
ccSim.node[29].phyLayer = "ConnectedBCNodePhyLayer"
ccSim.node[29].mobility.x = 0
ccSim.node[29].mobility.y = 92

#r-node
ccSim.node[30].phyLayer = "ConnectedRNodePhyLayer"
ccSim.node[30].mobility.x = 499
ccSim.node[30].mobility.y = 92

#right border
#BC-Node
ccSim.node[31].phyLayer = "ConnectedBCNodePhyLayer"
ccSim.node[31].mobility.x = 499
ccSim.node[31].mobility.y = 400

#r-node
ccSim.node[32].phyLayer = "ConnectedRNodePhyLayer"
ccSim.node[32].mobility.x = 0
ccSim.node[32].mobility.y = 400


###############################################################################
#                 Configuration for Run 3 - 3D without torus                  #
###############################################################################
[Run 3]

ccSim.world.useTorus = 0
ccSim.world.use2D = 0
ccSim.playgroundSizeZ = 500

# Node tests around one BC-Node
#BC-Node
ccSim.node[0].phyLayer = "ConnectedBCNodePhyLayer"
ccSim.node[0].mobility.x = 277
ccSim.node[0].mobility.y = 277
ccSim.node[0].mobility.z = 277

#Nodes right of BC-Node
#r-node in same cell of bc-node
ccSim.node[1].phyLayer = "ConnectedRNodePhyLayer"
ccSim.node[1].mobility.x = 367
ccSim.node[1].mobility.y = 277
ccSim.node[1].mobility.z = 277

#r-node in right cell of bc-node (in range)
ccSim.node[2].phyLayer = "ConnectedRNodePhyLayer"
ccSim.node[2].mobility.x = 368
ccSim.node[2].mobility.y = 277
ccSim.node[2].mobility.z = 277

#r-node in right cell of bc-node (out of range)
ccSim.node[3].phyLayer = "NotConnectedRNodePhyLayer"
ccSim.node[3].mobility.x = 369
ccSim.node[3].mobility.y = 277
ccSim.node[3].mobility.z = 277

#Nodes left of BC-Node
#r-node in same cell of bc-node
ccSim.node[4].phyLayer = "ConnectedRNodePhyLayer"
ccSim.node[4].mobility.x = 276
ccSim.node[4].mobility.y = 277
ccSim.node[4].mobility.z = 277

#r-node in left cell of bc-node (in range)
ccSim.node[5].phyLayer = "ConnectedRNodePhyLayer"
ccSim.node[5].mobility.x = 200
ccSim.node[5].mobility.y = 277
ccSim.node[5].mobility.z = 277

#r-node in left cell of bc-node (out of range)
ccSim.node[6].phyLayer = "NotConnectedRNodePhyLayer"
ccSim.node[6].mobility.x = 184
ccSim.node[6].mobility.y = 277
ccSim.node[6].mobility.z = 277

#Nodes below BC-Node
#r-node in same cell of bc-node
ccSim.node[7].phyLayer = "ConnectedRNodePhyLayer"
ccSim.node[7].mobility.x = 277
ccSim.node[7].mobility.y = 367
ccSim.node[7].mobility.z = 277

#r-node in lower cell of bc-node (in range)
ccSim.node[8].phyLayer = "ConnectedRNodePhyLayer"
ccSim.node[8].mobility.x = 277
ccSim.node[8].mobility.y = 368
ccSim.node[8].mobility.z = 277

#r-node in lower cell of bc-node (out of range)
ccSim.node[9].phyLayer = "NotConnectedRNodePhyLayer"
ccSim.node[9].mobility.x = 277
ccSim.node[9].mobility.y = 369
ccSim.node[9].mobility.z = 277

#Nodes above of BC-Node
#r-node in same cell of bc-node
ccSim.node[10].phyLayer = "ConnectedRNodePhyLayer"
ccSim.node[10].mobility.x = 277
ccSim.node[10].mobility.y = 276
ccSim.node[10].mobility.z = 277

#r-node in left cell of bc-node (in range)
ccSim.node[11].phyLayer = "ConnectedRNodePhyLayer"
ccSim.node[11].mobility.x = 277
ccSim.node[11].mobility.y = 200
ccSim.node[11].mobility.z = 277

#r-node in left cell of bc-node (out of range)
ccSim.node[12].phyLayer = "NotConnectedRNodePhyLayer"
ccSim.node[12].mobility.x = 277
ccSim.node[12].mobility.y = 184
ccSim.node[12].mobility.z = 277

#Nodes below right of BC-Node
#r-node in same cell of bc-node
ccSim.node[13].phyLayer = "ConnectedRNodePhyLayer"
ccSim.node[13].mobility.x = 341
ccSim.node[13].mobility.y = 341
ccSim.node[13].mobility.z = 277

#r-node in same cell of bc-node (in range)
ccSim.node[14].phyLayer = "NotConnectedRNodePhyLayer"
ccSim.node[14].mobility.x = 342
ccSim.node[14].mobility.y = 342
ccSim.node[14].mobility.z = 277

#r-node in lower-right cell of bc-node (out of range)
ccSim.node[15].phyLayer = "NotConnectedRNodePhyLayer"
ccSim.node[15].mobility.x = 369
ccSim.node[15].mobility.y = 369
ccSim.node[15].mobility.z = 277

#Nodes above left of BC-Node
#r-node in same cell of bc-node
ccSim.node[16].phyLayer = "ConnectedRNodePhyLayer"
ccSim.node[16].mobility.x = 276
ccSim.node[16].mobility.y = 276
ccSim.node[16].mobility.z = 277

#r-node in upper left cell of bc-node (in range)
ccSim.node[17].phyLayer = "ConnectedRNodePhyLayer"
ccSim.node[17].mobility.x = 213
ccSim.node[17].mobility.y = 213
ccSim.node[17].mobility.z = 277

#r-node in upper left cell of bc-node (out of range)
ccSim.node[18].phyLayer = "NotConnectedRNodePhyLayer"
ccSim.node[18].mobility.x = 211
ccSim.node[18].mobility.y = 211
ccSim.node[18].mobility.z = 277

#Nodes below left of BC-Node
#r-node in same cell of bc-node
ccSim.node[19].phyLayer = "ConnectedRNodePhyLayer"
ccSim.node[19].mobility.x = 276
ccSim.node[19].mobility.y = 278
ccSim.node[19].mobility.z = 277

#r-node in lower left cell of bc-node (in range)
ccSim.node[20].phyLayer = "ConnectedRNodePhyLayer"
ccSim.node[20].mobility.x = 213
ccSim.node[20].mobility.y = 341
ccSim.node[20].mobility.z = 277

#r-node in lower left cell of bc-node (out of range)
ccSim.node[21].phyLayer = "NotConnectedRNodePhyLayer"
ccSim.node[21].mobility.x = 211
ccSim.node[21].mobility.y = 343
ccSim.node[21].mobility.z = 277

#Nodes above right of BC-Node
#r-node in same cell of bc-node
ccSim.node[22].phyLayer = "ConnectedRNodePhyLayer"
ccSim.node[22].mobility.x = 341
ccSim.node[22].mobility.y = 276
ccSim.node[22].mobility.z = 277

#r-node in upper right cell of bc-node (in range)
ccSim.node[23].phyLayer = "ConnectedRNodePhyLayer"
ccSim.node[23].mobility.x = 342
ccSim.node[23].mobility.y = 275
ccSim.node[23].mobility.z = 277

#r-node in upper right cell of bc-node (out of range)
ccSim.node[24].phyLayer = "NotConnectedRNodePhyLayer"
ccSim.node[24].mobility.x = 369
ccSim.node[24].mobility.y = 211
ccSim.node[24].mobility.z = 277


#connections over border
#upper border
#BC-Node
ccSim.node[25].phyLayer = "NotConnectedBCNodePhyLayer"
ccSim.node[25].mobility.x = 92
ccSim.node[25].mobility.y = 0
ccSim.node[25].mobility.z = 277

#r-node
ccSim.node[26].phyLayer = "NotConnectedRNodePhyLayer"
ccSim.node[26].mobility.x = 92
ccSim.node[26].mobility.y = 499
ccSim.node[26].mobility.z = 277

#lower border
#BC-Node
ccSim.node[27].phyLayer = "NotConnectedBCNodePhyLayer"
ccSim.node[27].mobility.x = 400
ccSim.node[27].mobility.y = 499
ccSim.node[27].mobility.z = 277

#r-node
ccSim.node[28].phyLayer = "NotConnectedRNodePhyLayer"
ccSim.node[28].mobility.x = 400
ccSim.node[28].mobility.y = 0
ccSim.node[28].mobility.z = 277

#left border
#BC-Node
ccSim.node[29].phyLayer = "NotConnectedBCNodePhyLayer"
ccSim.node[29].mobility.x = 0
ccSim.node[29].mobility.y = 92
ccSim.node[29].mobility.z = 277

#r-node
ccSim.node[30].phyLayer = "NotConnectedRNodePhyLayer"
ccSim.node[30].mobility.x = 499
ccSim.node[30].mobility.y = 92
ccSim.node[30].mobility.z = 277

#right border
#BC-Node
ccSim.node[31].phyLayer = "NotConnectedBCNodePhyLayer"
ccSim.node[31].mobility.x = 499
ccSim.node[31].mobility.y = 400
ccSim.node[31].mobility.z = 277

#r-node
ccSim.node[32].phyLayer = "NotConnectedRNodePhyLayer"
ccSim.node[32].mobility.x = 0
ccSim.node[32].mobility.y = 400
ccSim.node[32].mobility.z = 277


[Parameters]
##############################################################################
#       Parameters for the entire simulation                                 #
##############################################################################
ccSim.playgroundSizeX = 500
ccSim.playgroundSizeY = 500

ccSim.numHosts = 33

**.coreDebug = 0



##############################################################################
#       Parameters for the ChannelControl                                    #
##############################################################################
ccSim.channelcontrol.carrierFrequency = 868e+6

# max transmission power [mW]
ccSim.channelcontrol.pMax  = 1

# signal attenuation threshold [dBm]
ccSim.channelcontrol.sat   = -90

ccSim.channelcontrol.coreDebug = 0
ccSim.channelcontrol.sendDirect = 0

# path loss coefficient alpha
ccSim.channelcontrol.alpha = 3


##############################################################################
#       Parameters for the Host                                              #
##############################################################################
ccSim.node[*].mobility.z = 0

##############################################################################
#       Parameters for the Application Layer                                 #
##############################################################################
ccSim.node[*].blackboard.coreDebug=0

ccSim.node[*].mobility.coreDebug=0

##############################################################################
#       Parameters for the Nic                                               #
##############################################################################

ccSim.node[*].nic.connectionManagerName = "channelcontrol"


##############################################################################
#       Parameters for the Physical Layer                                    #
##############################################################################

