<?xml version="1.0" encoding="UTF-8"?>

<!-- generated on Wed Mar  6 15:00:14 2019 by Eclipse SUMO polyconvert Version 1.1.0
<configuration xmlns:xsi="http://www.w3.org/2001/XMLSchema-instance" xsi:noNamespaceSchemaLocation="http://sumo.dlr.de/xsd/polyconvertConfiguration.xsd">

    <input>
        <net-file value="hochschule_muenchen.net.xml"/>
        <osm-files value="hochschule_muenchen.osm"/>
    </input>

    <output>
        <output-file value="hochschule_muenchen.poly.xml"/>
    </output>

    <processing>
        <poi-layer-offset value="5"/>
    </processing>

</configuration>
-->

<additional xmlns:xsi="http://www.w3.org/2001/XMLSchema-instance" xsi:noNamespaceSchemaLocation="http://sumo.dlr.de/xsd/additional_file.xsd">
    <location netOffset="-689432.88,-5336004.59" convBoundary="-557.75,-283.34,1978.26,1317.13" origBoundary="11.539720,48.146125,11.573934,48.160699" projParameter="+proj=utm +zone=32 +ellps=WGS84 +datum=WGS84 +units=m +no_defs"/>

    <poly id="116940903" type="building" color="255,230,230" fill="1" layer="-1.00" shape="473.613713,454.069706 468.083104,447.766708 475.123634,441.113639 468.137952,432.893145 479.267632,423.494301 491.135399,437.818263 473.613713,454.069706"/>
    <poly id="117887669" type="building" color="255,230,230" fill="1" layer="-1.00" shape="588.244774,468.782443 583.138208,474.587336 574.239011,466.826015 579.277905,461.041116 588.244774,468.782443"/>
    <poly id="117887673" type="building" color="255,230,230" fill="1" layer="-1.00" shape="613.070997,440.190709 598.065046,457.793788 588.226827,449.389302 604.092837,431.892671 613.070997,440.190709"/>
    <poly id="117887678" type="building" color="255,230,230" fill="1" layer="-1.00" shape="588.226827,449.389302 578.271546,460.184345 579.277905,461.041116 588.244774,468.782443 598.065046,457.793788 588.226827,449.389302"/>
    <poly id="117887681" type="building" color="255,230,230" fill="1" layer="-1.00" shape="583.138208,474.587336 569.143423,490.443940 552.774065,475.380509 561.235266,466.304795 568.288200,473.392802 574.239011,466.826015 583.138208,474.587336"/>
    <poly id="117887682" type="building" color="255,230,230" fill="1" layer="-1.00" shape="552.774065,475.380509 539.161722,460.241863 545.287914,454.893604 548.408452,452.171319 546.296779,450.298736 551.593184,445.501456 563.957336,457.427748 558.003698,462.959738 561.235266,466.304795 552.774065,475.380509"/>
    <poly id="117888096" type="building" color="255,230,230" fill="1" layer="-1.00" shape="436.206769,702.526659 449.289512,687.206903 439.015302,678.487775 432.075081,686.612829 425.932570,693.807555 436.206769,702.526659"/>
    <poly id="153191828" type="landuse" color="194,194,130" fill="1" layer="-3.00" shape="698.742129,504.354723 685.480455,492.787676 682.541851,496.305883 681.884589,498.831871 682.492882,502.479167 684.527908,504.416011 686.647147,505.387698 694.868791,506.206317 698.742129,504.354723"/>
    <poly id="153191828#1" type="tourism" color="207,245,201" fill="1" layer="-2.00" shape="698.742129,504.354723 685.480455,492.787676 682.541851,496.305883 681.884589,498.831871 682.492882,502.479167 684.527908,504.416011 686.647147,505.387698 694.868791,506.206317 698.742129,504.354723"/>
    <poly id="153191829" type="amenity" color="237,199,199" fill="1" layer="-1.00" shape="676.929984,686.306586 675.450623,684.900016 698.034252,661.274150 699.513614,662.680726 676.929984,686.306586"/>
    <poly id="153191830" type="amenity" color="237,199,199" fill="1" layer="-1.00" shape="655.310525,711.166194 653.360001,709.376803 669.631204,691.771465 671.581731,693.560861 655.310525,711.166194"/>
    <poly id="153191831" type="amenity" color="237,199,199" fill="1" layer="-1.00" shape="634.159300,662.843700 632.487315,661.408485 649.686567,641.642130 651.358184,643.088464 634.159300,662.843700"/>
    <poly id="153191832" type="amenity" color="237,199,199" fill="1" layer="-1.00" shape="703.033715,659.359889 701.710147,657.969620 725.516361,635.419233 726.840298,636.798394 703.033715,659.359889"/>
    <poly id="158510725" type="landuse" color="194,194,130" fill="1" layer="-3.00" shape="446.036468,484.595541 444.612644,470.307043 431.933586,468.528545 419.135440,467.869840 418.173569,472.622048 422.968285,484.719421 415.973527,489.549415 409.147361,479.887919 409.438199,471.130339 381.824077,446.503981 396.517733,427.298995 413.132367,444.183619 417.092218,445.105069 420.881970,439.267429 435.263640,426.994758 447.270670,410.904928 460.352728,425.881080 470.870435,416.751167 475.700757,423.965480 465.384796,433.969910 473.230814,441.840700 466.119507,447.935123 468.461319,449.603927 474.604210,456.973105 450.755171,477.687309 446.036468,484.595541"/>
    <poly id="158510725#1" type="leisure" color="207,245,201" fill="1" layer="-2.00" shape="446.036468,484.595541 444.612644,470.307043 431.933586,468.528545 419.135440,467.869840 418.173569,472.622048 422.968285,484.719421 415.973527,489.549415 409.147361,479.887919 409.438199,471.130339 381.824077,446.503981 396.517733,427.298995 413.132367,444.183619 417.092218,445.105069 420.881970,439.267429 435.263640,426.994758 447.270670,410.904928 460.352728,425.881080 470.870435,416.751167 475.700757,423.965480 465.384796,433.969910 473.230814,441.840700 466.119507,447.935123 468.461319,449.603927 474.604210,456.973105 450.755171,477.687309 446.036468,484.595541"/>
    <poly id="158510935" type="parking" color="184,184,179" fill="1" layer="-1.00" shape="481.466491,517.982122 502.925042,494.151237 495.611520,485.942061 473.308522,511.213545 481.466491,517.982122"/>
    <poly id="158512857" type="building" color="255,230,230" fill="1" layer="-1.00" shape="487.126255,552.438077 493.880867,557.524538 497.457130,552.959337 508.154912,561.258721 501.239993,568.839373 494.726930,575.977220 478.572938,562.501036 477.826915,561.875450 487.126255,552.438077"/>
    <poly id="158512858" type="building" color="255,230,230" fill="1" layer="-1.00" shape="511.727322,534.853161 525.395204,519.864519 535.931975,529.649480 528.772835,537.856165 522.991339,544.484249 511.727322,534.853161"/>
    <poly id="158512860" type="building" color="255,230,230" fill="1" layer="-1.00" shape="527.099381,502.186383 535.629819,492.144979 554.525271,508.482794 546.356379,517.501473 538.079338,526.638954 528.103194,518.129852 535.839085,510.042465 527.099381,502.186383"/>
    <poly id="158512861" type="building" color="255,230,230" fill="1" layer="-1.00" shape="488.343476,551.877717 521.224942,512.282679 517.386128,507.048306 502.376670,526.787675 484.655966,549.708028 488.343476,551.877717"/>
    <poly id="158512862" type="building" color="255,230,230" fill="1" layer="-1.00" shape="497.964733,550.005575 511.406022,534.664470 522.991339,544.484249 516.110928,551.921394 509.624200,558.937716 497.964733,550.005575"/>
    <poly id="163981252" type="pipeline" color="255,230,230" fill="0" layer="-1.00" shape="513.225918,615.666237 648.500820,741.102243 816.722646,887.665165"/>
    <poly id="166598534" type="amenity" color="237,199,199" fill="1" layer="-1.00" shape="740.221001,623.069050 758.050212,611.234523 776.867643,600.578906 778.082370,602.555248 759.022210,613.569941 741.435735,625.045384 740.221001,623.069050"/>
    <poly id="196013324" type="building" color="255,230,230" fill="1" layer="-1.00" shape="406.264063,717.119575 425.033746,733.419438 467.695137,770.484153 475.859780,761.131466 487.769467,747.508473 495.686241,738.447976 462.032677,709.225698 453.125309,719.421556 463.797761,728.699117 454.395295,739.457074 440.698278,727.553469 428.158530,716.667424 425.589882,714.434798 430.348903,708.996522 420.689394,700.598245 406.264063,717.119575"/>
    <poly id="22690754" type="landuse" color="194,194,130" fill="1" layer="-3.00" shape="904.068288,444.287121 882.163332,426.679687 850.771260,400.412055 816.683201,439.931834 840.584109,460.876485 867.265222,485.296101 893.817189,457.686410 904.068288,444.287121"/>
    <poly id="22690754#1" type="leisure" color="207,245,201" fill="1" layer="-2.00" shape="904.068288,444.287121 882.163332,426.679687 850.771260,400.412055 816.683201,439.931834 840.584109,460.876485 867.265222,485.296101 893.817189,457.686410 904.068288,444.287121"/>
    <poly id="236125735" type="building" color="255,230,230" fill="1" layer="-1.00" shape="542.511685,440.982909 534.061034,430.922366 514.390720,408.094717 506.612383,398.635109 498.276403,405.734645 505.266142,413.832926 516.707506,427.096937 528.342590,440.578804 534.701082,447.955214 542.511685,440.982909"/>
    <poly id="25626259" type="building" color="255,230,230" fill="1" layer="-1.00" shape="535.087465,585.751849 564.480280,553.017088 573.556912,542.893760 629.216646,481.014605 643.405348,465.153459 657.467643,478.171146 608.648106,533.368226 613.280034,537.360675 657.561786,487.653600 663.853098,493.014134 668.210754,488.463889 670.988063,490.914955 666.846853,495.672663 672.558091,501.013917 616.289585,563.951648 614.542052,565.907348 613.557386,567.309860 616.770568,570.309439 606.118564,582.583267 603.489267,580.159403 571.284059,617.095108 553.431819,601.637455 551.485336,599.948372 535.087465,585.751849"/>
    <poly id="25626267" type="amenity" color="237,199,199" fill="1" layer="-1.00" shape="456.996470,542.380597 459.523050,539.382641 458.367167,538.320657 433.744636,515.540164 430.417918,518.645066 408.955355,498.895769 415.973527,489.549415 420.374611,487.047608 424.239263,485.006404 419.485412,471.230370 431.933586,468.528545 445.488959,471.493248 440.939429,484.515246 442.582714,485.248511 444.438707,486.077850 446.036468,484.595541 476.260422,457.317401 480.119633,454.096701 488.237429,463.645436 480.567643,469.743538 479.665382,470.459001 455.130676,490.972390 451.845705,494.612713 449.341368,497.388893 488.029594,533.987891 480.239792,543.252896 481.688805,544.903173 472.892242,556.237543 459.406017,544.474436 456.996470,542.380597"/>
    <poly id="25626267#1" type="building" color="255,230,230" fill="1" layer="-1.00" shape="456.996470,542.380597 459.523050,539.382641 458.367167,538.320657 433.744636,515.540164 430.417918,518.645066 408.955355,498.895769 415.973527,489.549415 420.374611,487.047608 424.239263,485.006404 419.485412,471.230370 431.933586,468.528545 445.488959,471.493248 440.939429,484.515246 442.582714,485.248511 444.438707,486.077850 446.036468,484.595541 476.260422,457.317401 480.119633,454.096701 488.237429,463.645436 480.567643,469.743538 479.665382,470.459001 455.130676,490.972390 451.845705,494.612713 449.341368,497.388893 488.029594,533.987891 480.239792,543.252896 481.688805,544.903173 472.892242,556.237543 459.406017,544.474436 456.996470,542.380597"/>
    <poly id="259759829" type="residential" color="235,235,227" fill="1" layer="-3.00" shape="408.002180,-27.525966 135.637588,65.717189 -95.615908,125.799452 -164.060293,140.655828 -180.788525,141.971190 -156.803509,227.077029 -178.339475,246.112458 -191.762265,261.611477 -194.941044,264.977521 -197.335874,267.601833 -215.962051,289.381663 -284.889424,377.409232 -557.749396,691.670638 -5.513910,1155.359132 -1.133921,1156.616896 48.661239,1098.376818 191.665010,933.994501 240.987785,877.542615 272.611066,904.459898 412.488023,742.437541 384.450445,716.706672 495.506957,593.504255 670.657018,383.560622 793.539885,243.400060 794.742701,240.814353 812.737380,207.712562 830.736499,158.823201 872.675497,-38.001398 892.677141,-125.542377 796.000447,-107.798414 661.005664,-85.686123 691.813190,-12.176132 538.637370,40.920867 560.273615,90.438234 483.221013,124.526962 408.002180,-27.525966"/>
    <poly id="259759830" type="residential" color="235,235,227" fill="1" layer="-3.00" shape="1675.780646,168.706614 1727.181251,294.136007 1790.274231,448.095031 1788.842715,455.724152 1781.797203,458.470272 1779.184263,451.785096 1682.315800,489.456366 1581.345611,528.716679 1576.706740,530.519860 1593.614777,573.719984 1587.022390,576.281203 1585.143951,577.019509 1586.776436,581.190709 1615.070067,653.487816 1618.577416,652.125272 1622.658109,650.537121 1639.393204,693.319986 1746.501305,651.662610 1842.507208,614.341977 1839.557927,606.811050 1847.070682,603.891501 1852.426465,603.358651 1898.693966,715.522940 1943.422027,841.810872 1948.683795,885.212042 1953.964628,946.271026 1964.574588,952.890320 1970.245888,958.710057 1978.255979,1023.176077 1898.890996,1041.224412 1825.413533,1065.545689 1731.103656,1092.219595 1622.234644,1134.240719 1598.589889,1147.446971 1535.792654,1163.005418 1403.188730,1190.952978 1173.820656,1233.232390 1046.386715,1254.039511 1011.563501,1091.429278 1002.140670,1040.224893 955.006035,998.155904 832.457491,888.411448 742.344514,806.273340 655.609307,730.835720 495.506957,593.504255 670.657018,383.560622 793.539885,243.400060 794.742701,240.814353 812.737380,207.712562 830.736499,158.823201 872.675497,-38.001398 892.677141,-125.542377 910.856815,-157.892340 950.798655,-161.113029 1238.236518,-264.786470 1287.194026,-283.336279 1306.689497,-240.095541 1359.712050,-109.353523 1538.770857,-180.812886 1675.780646,168.706614"/>
    <poly id="272446855" type="amenity" color="237,199,199" fill="1" layer="-1.00" shape="553.756341,686.172139 546.904037,694.110843 541.277382,689.139676 548.738308,681.032052 553.756341,686.172139"/>
    <poly id="272446855#1" type="building" color="255,230,230" fill="1" layer="-1.00" shape="553.756341,686.172139 546.904037,694.110843 541.277382,689.139676 548.738308,681.032052 553.756341,686.172139"/>
    <poly id="272446859" type="amenity" color="237,199,199" fill="1" layer="-1.00" shape="550.603443,696.815021 557.643233,689.283087 563.464007,694.460991 556.424215,701.992918 550.603443,696.815021"/>
    <poly id="272446859#1" type="building" color="255,230,230" fill="1" layer="-1.00" shape="550.603443,696.815021 557.643233,689.283087 563.464007,694.460991 556.424215,701.992918 550.603443,696.815021"/>
    <poly id="274144174" type="building" color="255,230,230" fill="1" layer="-1.00" shape="789.632075,464.877270 776.693331,453.899303 770.124244,448.162242 757.270842,436.630865 750.665271,430.870364 735.183375,417.782966 729.231211,412.745165 726.521885,415.859319 732.427949,420.940088 747.750344,434.122306 738.428234,444.448611 725.504749,459.417046 732.621304,465.706313 745.841851,450.536383 754.937126,440.091283 786.369386,467.616951 775.762270,480.314776 764.449625,493.856969 771.399859,499.996118 782.612177,486.784379 796.352856,470.752915 789.632075,464.877270"/>
    <poly id="274144175" type="building" color="255,230,230" fill="1" layer="-1.00" shape="806.138287,472.680699 812.235821,465.740742 753.568821,414.533897 747.772807,421.139040 754.247859,426.795061 750.665271,430.870364 757.270842,436.630865 760.598037,432.847471 773.606092,444.205986 770.124244,448.162242 776.693331,453.899303 780.082613,450.040104 792.874147,461.191195 789.632075,464.877270 796.352856,470.752915 799.641398,467.012760 806.138287,472.680699"/>
    <poly id="274144176" type="building" color="255,230,230" fill="1" layer="-1.00" shape="804.008575,496.408302 811.513301,503.333648 818.903110,495.368612 811.405818,488.443504 809.575652,490.418651 804.008575,496.408302"/>
    <poly id="274144179" type="building" color="255,230,230" fill="1" layer="-1.00" shape="719.726255,454.307147 712.778917,461.730725 719.291136,467.387943 715.757653,471.331387 761.584150,511.062525 765.235891,507.145296 771.634608,512.854435 777.916085,505.753677 771.399859,499.996118 766.908557,496.030467 764.449625,493.856969 732.621304,465.706313 725.504749,459.417046 719.726255,454.307147"/>
    <poly id="313258253" type="building" color="255,230,230" fill="1" layer="-1.00" shape="775.981441,748.691891 771.696151,743.687236 760.166111,730.664457 748.750891,717.545390 739.610894,707.194534 732.023505,698.508614 722.835573,706.380545 729.950283,714.505554 740.020029,725.999927 751.653532,739.270876 761.479230,750.490148 763.989479,753.355172 770.421084,753.368918 775.981441,748.691891"/>
    <poly id="313409055" type="tourism" color="207,245,201" fill="1" layer="-2.00" shape="446.155533,673.306623 457.018269,683.358176 470.108685,686.185139 475.078102,680.242092 476.859059,675.261207 477.205655,667.517936 475.646355,663.138136 471.988058,653.592918 470.175496,647.424555 446.155533,673.306623"/>
    <poly id="346311419" type="parking" color="184,184,179" fill="1" layer="-1.00" shape="807.568843,593.445238 814.816214,590.204007 820.423687,588.143188 826.454636,585.885075 829.917968,584.720861 829.448715,588.977622 826.709685,590.076936 820.890291,592.241955 815.484016,594.520863 807.395996,597.967762 807.568843,593.445238"/>
    <poly id="352842497" type="amenity" color="237,199,199" fill="1" layer="-1.00" shape="476.103552,715.478665 477.449536,713.954626 500.543398,734.314753 499.189976,735.838540 476.103552,715.478665"/>
    <poly id="35589673" type="building" color="255,230,230" fill="1" layer="-1.00" shape="693.023879,440.802135 685.042525,450.216280 678.820652,457.541638 662.424607,476.867356 646.065780,463.283751 676.261858,426.804501 680.517061,430.261552 693.023879,440.802135"/>
    <poly id="35589673#1" type="leisure" color="207,245,201" fill="1" layer="-2.00" shape="693.023879,440.802135 685.042525,450.216280 678.820652,457.541638 662.424607,476.867356 646.065780,463.283751 676.261858,426.804501 680.517061,430.261552 693.023879,440.802135"/>
    <poly id="35589675" type="amenity" color="237,199,199" fill="1" layer="-1.00" shape="838.341157,566.732356 820.615060,551.077770 818.707545,552.916827 816.892229,554.669945 786.715715,528.131562 792.414304,521.767989 797.775767,526.430178 801.433403,522.112632 806.618340,523.130758 809.174429,528.200266 814.001411,529.907424 816.486123,535.108072 820.741475,536.095274 823.081300,542.069922 825.302219,544.235527 830.452945,538.899599 835.213506,541.483517 837.355257,546.027453 842.488150,547.266401 844.533739,552.686092 840.432037,556.477035 844.367939,559.456301 838.341157,566.732356"/>
    <poly id="35589675#1" type="building" color="255,230,230" fill="1" layer="-1.00" shape="838.341157,566.732356 820.615060,551.077770 818.707545,552.916827 816.892229,554.669945 786.715715,528.131562 792.414304,521.767989 797.775767,526.430178 801.433403,522.112632 806.618340,523.130758 809.174429,528.200266 814.001411,529.907424 816.486123,535.108072 820.741475,536.095274 823.081300,542.069922 825.302219,544.235527 830.452945,538.899599 835.213506,541.483517 837.355257,546.027453 842.488150,547.266401 844.533739,552.686092 840.432037,556.477035 844.367939,559.456301 838.341157,566.732356"/>
    <poly id="35589806" type="building" color="255,230,230" fill="1" layer="-1.00" shape="908.604539,483.123246 928.841015,535.621999 920.016652,539.266746 916.933392,531.698531 905.434264,536.300077 900.394106,538.312950 903.281778,545.718879 891.011174,550.461654 880.915956,524.524634 865.252660,530.767782 862.145904,523.232197 856.966531,526.519963 849.409744,514.675132 860.780142,507.454581 868.344354,519.299675 877.487372,515.698836 870.505560,497.764948 882.768816,493.021880 885.142082,499.108929 901.047934,492.962913 898.805616,487.191745 908.604539,483.123246"/>
    <poly id="372739498" type="building" color="255,230,230" fill="1" layer="-1.00" shape="724.132229,600.938291 725.706006,600.178448 727.043294,599.366235 728.100215,598.477939 729.312479,597.172025 730.893484,595.299826 732.091406,592.858585 732.729004,590.476586 732.579484,588.257542 732.062207,585.903878 730.901734,583.862597 729.401484,582.188295 727.367368,580.896769 724.742524,580.130766 721.267414,579.859400 719.110500,580.021295 716.884482,580.470167 714.831438,581.314203 713.241718,582.329416 711.472912,584.028482 710.607208,585.434937 710.051619,586.918462 709.584899,588.416070 709.401135,589.911964 709.383605,591.558025 709.762512,593.595556 710.513201,595.422935 711.512207,596.947046 713.308439,598.675692 714.675443,599.655747 716.200832,600.574314 717.796063,601.183679 719.544830,601.653513 722.156470,601.473367 724.132229,600.938291"/>
    <poly id="37338539" type="amenity" color="237,199,199" fill="1" layer="-1.00" shape="564.335257,715.506889 563.485170,716.669110 553.871116,707.804817 550.982280,705.127577 539.555221,694.589788 537.018194,692.302531 535.820695,691.150138 534.791351,692.106138 524.680650,684.070966 525.688275,682.424433 503.905544,663.153620 500.534614,666.245884 488.339958,655.727207 502.172747,641.367059 507.875745,646.507609 513.441874,651.510105 512.684031,652.808911 534.415313,671.388237 548.010301,655.674051 568.496265,674.312258 587.746314,691.830243 574.658246,706.626607 595.121159,724.830249 597.383179,722.624627 604.960978,729.140477 610.903236,734.244592 596.279393,749.779788 584.199222,739.186808 586.927314,736.173356 564.335257,715.506889"/>
    <poly id="37338539#1" type="building" color="255,230,230" fill="1" layer="-1.00" shape="564.335257,715.506889 563.485170,716.669110 553.871116,707.804817 550.982280,705.127577 539.555221,694.589788 537.018194,692.302531 535.820695,691.150138 534.791351,692.106138 524.680650,684.070966 525.688275,682.424433 503.905544,663.153620 500.534614,666.245884 488.339958,655.727207 502.172747,641.367059 507.875745,646.507609 513.441874,651.510105 512.684031,652.808911 534.415313,671.388237 548.010301,655.674051 568.496265,674.312258 587.746314,691.830243 574.658246,706.626607 595.121159,724.830249 597.383179,722.624627 604.960978,729.140477 610.903236,734.244592 596.279393,749.779788 584.199222,739.186808 586.927314,736.173356 564.335257,715.506889"/>
    <poly id="37338826" type="parking" color="184,184,179" fill="1" layer="-1.00" shape="659.742433,718.033667 657.820666,713.141085 677.612743,690.623920 699.438262,667.184240 706.489183,660.220270 717.475565,649.982673 728.788408,639.555689 738.018889,631.974452 747.922044,624.537995 759.206105,616.769216 771.065516,609.609280 780.792817,603.880425 791.601097,598.554715 791.431709,603.644779 771.669498,614.502557 749.067054,629.504899 730.898931,643.920528 708.923090,664.039559 702.223443,670.514541 679.632937,695.019113 659.742433,718.033667"/>
    <poly id="37389284" type="building" color="255,230,230" fill="1" layer="-1.00" shape="494.736171,484.054944 474.138789,507.958973 455.130676,490.972390 479.665382,470.459001 494.736171,484.054944"/>
    <poly id="37389285" type="amenity" color="237,199,199" fill="1" layer="-1.00" shape="488.237429,463.645436 503.801730,451.857260 532.026795,483.847670 518.380708,498.625633 489.742632,465.397714 488.237429,463.645436"/>
    <poly id="37389285#1" type="building" color="255,230,230" fill="1" layer="-1.00" shape="488.237429,463.645436 503.801730,451.857260 532.026795,483.847670 518.380708,498.625633 489.742632,465.397714 488.237429,463.645436"/>
    <poly id="37389288" type="amenity" color="237,199,199" fill="1" layer="-1.00" shape="491.135399,437.818263 503.801730,451.857260 488.237429,463.645436 480.119633,454.096701 476.260422,457.317401 474.572567,455.236407 473.613713,454.069706 491.135399,437.818263"/>
    <poly id="37389288#1" type="building" color="255,230,230" fill="1" layer="-1.00" shape="491.135399,437.818263 503.801730,451.857260 488.237429,463.645436 480.119633,454.096701 476.260422,457.317401 474.572567,455.236407 473.613713,454.069706 491.135399,437.818263"/>
    <poly id="37389807" type="amenity" color="237,199,199" fill="1" layer="-1.00" shape="538.283982,485.757879 450.258155,393.135901 434.478702,407.142265 412.419580,385.615271 389.867517,410.990064 384.270462,417.446394 354.428989,451.824920 349.049150,458.243988 399.053638,502.038233 352.298042,560.632534 339.830757,576.251090 378.322828,610.239361 347.500171,645.497619 361.022428,657.295039 453.416758,551.084557 470.260906,564.405577 484.655966,549.708028 496.741693,536.624926 521.419714,502.164536 538.283982,485.757879"/>
    <poly id="374090999" type="amenity" color="237,199,199" fill="1" layer="-1.00" shape="547.969790,563.037996 549.612818,564.449969 545.958360,568.678761 544.307896,567.266542 547.969790,563.037996"/>
    <poly id="37693940" type="building" color="255,230,230" fill="1" layer="-1.00" shape="589.453559,614.272289 598.630594,621.953880 616.578495,636.992079 621.684826,641.267337 618.537002,644.811993 605.688889,659.326999 579.878572,637.374143 576.410727,634.421749 582.964345,627.185206 576.119308,621.016406 563.006601,635.878740 573.332501,645.055978 607.158645,675.130228 638.633414,639.338665 597.290713,605.153638 589.453559,614.272289"/>
    <poly id="37869607" type="building" color="255,230,230" fill="1" layer="-1.00" shape="404.653126,626.423035 406.674058,628.337058 415.071893,635.725441 422.622138,626.941945 438.783944,608.130747 444.785683,601.142747 441.702019,597.379881 443.581069,595.272738 445.181702,593.479000 440.523398,589.830719 439.231353,591.523449 437.630722,593.317189 435.029794,591.606409 404.653126,626.423035"/>
    <poly id="37869608" type="building" color="255,230,230" fill="1" layer="-1.00" shape="434.450088,583.732239 446.585733,570.261291 458.745795,581.156995 470.927751,592.064582 458.792087,605.535479 445.181702,593.479000 440.523398,589.830719 434.450088,583.732239"/>
    <poly id="392096578" type="amenity" color="237,199,199" fill="1" layer="-1.00" shape="459.607858,627.591951 463.628078,623.330757 464.848285,624.472762 460.820628,628.733709 459.607858,627.591951"/>
    <poly id="392096579" type="amenity" color="237,199,199" fill="1" layer="-1.00" shape="452.286026,635.548545 456.262724,631.252522 457.490736,632.383659 453.514038,636.679681 452.286026,635.548545"/>
    <poly id="392096580" type="amenity" color="237,199,199" fill="1" layer="-1.00" shape="467.347206,619.393340 471.323926,615.097327 472.552308,616.217354 468.575218,620.524480 467.347206,619.393340"/>
    <poly id="421561970" type="amenity" color="237,199,199" fill="1" layer="-1.00" shape="624.721684,479.619049 623.455376,478.519981 577.944364,530.500643 579.210669,531.599701 624.721684,479.619049"/>
    <poly id="421561973" type="leisure" color="207,245,201" fill="1" layer="-2.00" shape="811.578082,474.319238 826.516060,457.660127 855.728555,483.643693 859.240652,486.831378 844.302642,503.490405 811.578082,474.319238"/>
    <poly id="421561973#1" type="sport" color="79,230,125" fill="1" layer="-2.00" shape="811.578082,474.319238 826.516060,457.660127 855.728555,483.643693 859.240652,486.831378 844.302642,503.490405 811.578082,474.319238"/>
    <poly id="421561982" type="amenity" color="237,199,199" fill="1" layer="-1.00" shape="626.152698,475.316375 627.253138,476.254166 638.970748,462.613925 637.870308,461.676132 626.152698,475.316375"/>
    <poly id="421561987" type="leisure" color="207,245,201" fill="1" layer="-2.00" shape="855.728555,483.643693 826.516060,457.660127 783.574841,419.370722 785.886804,416.788543 858.086629,481.018574 855.728555,483.643693"/>
    <poly id="421561987#1" type="sport" color="79,230,125" fill="1" layer="-2.00" shape="855.728555,483.643693 826.516060,457.660127 783.574841,419.370722 785.886804,416.788543 858.086629,481.018574 855.728555,483.643693"/>
    <poly id="423153578" type="building" color="255,230,230" fill="1" layer="-1.00" shape="568.519154,580.899470 572.594710,584.383852 563.472508,594.984079 559.396955,591.499704 568.519154,580.899470"/>
    <poly id="423153579" type="building" color="255,230,230" fill="1" layer="-1.00" shape="575.471270,581.608971 584.851575,571.084096 580.526821,567.257643 571.146518,577.782525 575.471270,581.608971"/>
    <poly id="423153580" type="building" color="255,230,230" fill="1" layer="-1.00" shape="596.454762,546.992703 601.478652,551.287447 610.965288,540.254350 605.941393,535.959598 596.454762,546.992703"/>
    <poly id="433685552" type="building" color="255,230,230" fill="1" layer="-1.00" shape="493.117327,521.350963 501.028891,514.248453 498.461975,510.168949 489.790453,517.513237 493.117327,521.350963"/>
    <poly id="433685585" type="building" color="255,230,230" fill="1" layer="-1.00" shape="683.251308,460.871016 683.065436,461.087353 670.968533,475.159936 687.821220,489.561113 700.104381,475.261115 686.356993,463.522151 683.251308,460.871016"/>
    <poly id="433685600" type="building" color="255,230,230" fill="1" layer="-1.00" shape="556.866414,630.901617 557.463399,630.187146 558.928727,628.433445 557.139578,626.938730 555.077265,629.406902 556.866414,630.901617"/>
    <poly id="433685600#1" type="man_made" color="255,230,230" fill="1" layer="-1.00" shape="556.866414,630.901617 557.463399,630.187146 558.928727,628.433445 557.139578,626.938730 555.077265,629.406902 556.866414,630.901617"/>
    <poly id="433685618" type="amenity" color="237,199,199" fill="1" layer="-1.00" shape="535.350599,600.235460 530.051928,595.920516 534.017064,591.078986 539.315737,595.393934 535.350599,600.235460"/>
    <poly id="450228376" type="building" color="255,230,230" fill="1" layer="-1.00" shape="686.271646,451.314125 682.830788,455.383054 689.001607,460.561591 692.442466,456.492666 686.271646,451.314125"/>
    <poly id="450367724" type="landuse" color="194,194,130" fill="1" layer="-3.00" shape="718.872103,519.599323 720.833783,517.250241 701.737428,503.608776 718.872103,519.599323"/>
    <poly id="450367724#1" type="tourism" color="207,245,201" fill="1" layer="-2.00" shape="718.872103,519.599323 720.833783,517.250241 701.737428,503.608776 718.872103,519.599323"/>
    <poly id="450367729" type="landuse" color="194,194,130" fill="1" layer="-3.00" shape="703.249861,512.303962 702.323940,511.939385 701.098707,511.620483 684.380236,509.751566 678.997337,509.984203 676.512875,502.981224 595.597161,600.335426 633.940996,633.586275 667.318701,595.655180 692.401931,567.840031 687.673538,564.511864 696.061765,560.095698 690.923390,548.053382 722.166977,533.794410 718.801324,526.650836 703.249861,512.303962"/>