<?xml version="1.0" encoding="UTF-8"?>

<!-- generated on Wed Mar  6 14:53:30 2019 by Eclipse SUMO netconvert Version 1.1.0
<configuration xmlns:xsi="http://www.w3.org/2001/XMLSchema-instance" xsi:noNamespaceSchemaLocation="http://sumo.dlr.de/xsd/netconvertConfiguration.xsd">

    <input>
        <type-files value="/usr/share/sumo/data/typemap/osmNetconvert.typ.xml,/usr/share/sumo/data/typemap/osmNetconvertPedestrians.typ.xml"/>
        <osm-files value="hochschule_muenchen.osm"/>
    </input>

    <output>
        <output-file value="hochschule_muenchen.net.xml"/>
    </output>

    <projection>
        <proj.utm value="true"/>
    </projection>

    <processing>
        <geometry.remove value="true"/>
        <roundabouts.guess value="true"/>
    </processing>

    <tls_building>
        <tls.join value="true"/>
        <tls.guess-signals value="true"/>
    </tls_building>

    <ramp_guessing>
        <ramps.guess value="true"/>
    </ramp_guessing>

</configuration>
-->

<net version="1.1" junctionCornerDetail="5" limitTurnSpeed="5.50" xmlns:xsi="http://www.w3.org/2001/XMLSchema-instance" xsi:noNamespaceSchemaLocation="http://sumo.dlr.de/xsd/net_file.xsd">

    <location netOffset="-689432.88,-5336004.59" convBoundary="0.00,0.00,919.19,1155.14" origBoundary="11.547408,48.148799,11.559554,48.159432" projParameter="+proj=utm +zone=32 +ellps=WGS84 +datum=WGS84 +units=m +no_defs"/>

    <type id="highway.bridleway" priority="1" numLanes="1" speed="2.78" allow="pedestrian" oneway="1" width="2.00"/>
    <type id="highway.bus_guideway" priority="1" numLanes="1" speed="27.78" allow="bus" oneway="1"/>
    <type id="highway.cycleway" priority="1" numLanes="1" speed="8.33" allow="bicycle" oneway="0" width="1.00"/>
    <type id="highway.footway" priority="1" numLanes="1" speed="2.78" allow="pedestrian" oneway="1" width="2.00"/>
    <type id="highway.ford" priority="1" numLanes="1" speed="2.78" allow="army" oneway="0"/>
    <type id="highway.living_street" priority="3" numLanes="1" speed="2.78" disallow="tram rail_urban rail rail_electric ship" oneway="0"/>
    <type id="highway.motorway" priority="13" numLanes="2" speed="44.44" allow="private emergency authority army vip passenger hov taxi bus coach delivery truck trailer motorcycle evehicle custom1 custom2" oneway="1"/>
    <type id="highway.motorway_link" priority="12" numLanes="1" speed="22.22" allow="private emergency authority army vip passenger hov taxi bus coach delivery truck trailer motorcycle evehicle custom1 custom2" oneway="1"/>
    <type id="highway.path" priority="1" numLanes="1" speed="2.78" allow="bicycle pedestrian" oneway="1" width="2.00"/>
    <type id="highway.pedestrian" priority="1" numLanes="1" speed="2.78" allow="pedestrian" oneway="1" width="2.00"/>
    <type id="highway.primary" priority="9" numLanes="2" speed="27.78" disallow="tram rail_urban rail rail_electric pedestrian ship" oneway="0" sidewalkWidth="3.00"/>
    <type id="highway.primary_link" priority="8" numLanes="1" speed="22.22" disallow="tram rail_urban rail rail_electric pedestrian ship" oneway="0" sidewalkWidth="3.00"/>
    <type id="highway.raceway" priority="14" numLanes="2" speed="83.33" allow="vip" oneway="0"/>
    <type id="highway.residential" priority="4" numLanes="1" speed="13.89" disallow="tram rail_urban rail rail_electric pedestrian ship" oneway="0" sidewalkWidth="2.00"/>
    <type id="highway.secondary" priority="7" numLanes="2" speed="27.78" disallow="tram rail_urban rail rail_electric pedestrian ship" oneway="0" sidewalkWidth="3.00"/>
    <type id="highway.secondary_link" priority="6" numLanes="1" speed="22.22" disallow="tram rail_urban rail rail_electric pedestrian ship" oneway="0" sidewalkWidth="3.00"/>
    <type id="highway.service" priority="2" numLanes="1" speed="5.56" allow="delivery bicycle pedestrian" oneway="0"/>
    <type id="highway.stairs" priority="1" numLanes="1" speed="1.39" allow="pedestrian" oneway="1" width="2.00"/>
    <type id="highway.step" priority="1" numLanes="1" speed="1.39" allow="pedestrian" oneway="1" width="2.00"/>
    <type id="highway.steps" priority="1" numLanes="1" speed="1.39" allow="pedestrian" oneway="1" width="2.00"/>
    <type id="highway.tertiary" priority="6" numLanes="1" speed="22.22" disallow="tram rail_urban rail rail_electric pedestrian ship" oneway="0" sidewalkWidth="3.00"/>
    <type id="highway.tertiary_link" priority="5" numLanes="1" speed="22.22" disallow="tram rail_urban rail rail_electric pedestrian ship" oneway="0" sidewalkWidth="2.00"/>
    <type id="highway.track" priority="1" numLanes="1" speed="5.56" disallow="tram rail_urban rail rail_electric ship" oneway="0"/>
    <type id="highway.trunk" priority="11" numLanes="2" speed="27.78" disallow="tram rail_urban rail rail_electric bicycle pedestrian ship" oneway="0"/>
    <type id="highway.trunk_link" priority="10" numLanes="1" speed="22.22" disallow="tram rail_urban rail rail_electric bicycle pedestrian ship" oneway="0"/>
    <type id="highway.unclassified" priority="5" numLanes="1" speed="13.89" disallow="tram rail_urban rail rail_electric pedestrian ship" oneway="0" sidewalkWidth="2.00"/>
    <type id="highway.unsurfaced" priority="1" numLanes="1" speed="8.33" disallow="tram rail_urban rail rail_electric ship" oneway="0"/>
    <type id="railway.light_rail" priority="15" numLanes="1" speed="27.78" allow="rail_urban" oneway="1"/>
    <type id="railway.preserved" priority="15" numLanes="1" speed="27.78" allow="rail" oneway="1"/>
    <type id="railway.rail" priority="15" numLanes="1" speed="83.33" allow="rail rail_electric" oneway="1"/>
    <type id="railway.subway" priority="15" numLanes="1" speed="27.78" allow="rail_urban" oneway="1"/>
    <type id="railway.tram" priority="15" numLanes="1" speed="13.89" allow="tram" oneway="1"/>

    <edge id=":1011769979_0" function="internal">
        <lane id=":1011769979_0_0" index="0" allow="bicycle" speed="2.04" length="1.46" width="1.00" shape="880.72,22.19 881.02,21.86 881.29,21.78 881.52,21.94 881.71,22.35"/>
    </edge>
    <edge id=":1021176478_0" function="internal">
        <lane id=":1021176478_0_0" index="0" allow="bicycle" speed="2.04" length="1.46" width="1.00" shape="0.37,1132.63 -0.07,1132.74 -0.33,1132.67 -0.44,1132.41 -0.37,1131.96"/>
    </edge>
    <edge id=":1077566226_0" function="internal">
        <lane id=":1077566226_0_0" index="0" disallow="tram rail_urban rail rail_electric pedestrian ship" speed="13.89" length="3.48" shape="498.69,600.57 495.93,598.44"/>
    </edge>
    <edge id=":1077566226_1" function="internal">
        <lane id=":1077566226_1_0" index="0" allow="tram" speed="13.89" length="13.71" shape="502.56,592.96 493.29,603.07"/>
    </edge>
    <edge id=":1077566226_2" function="internal">
        <lane id=":1077566226_2_0" index="0" disallow="tram rail_urban rail rail_electric pedestrian ship" speed="13.89" length="3.67" shape="497.77,595.82 500.67,598.07"/>
    </edge>
    <edge id=":1077566373_0" function="internal">
        <lane id=":1077566373_0_0" index="0" disallow="tram rail_urban rail rail_electric pedestrian ship" speed="13.89" length="3.79" shape="495.77,598.32 492.76,596.02"/>
    </edge>
    <edge id=":1077566373_1" function="internal">
        <lane id=":1077566373_1_0" index="0" disallow="tram rail_urban rail rail_electric pedestrian ship" speed="13.89" length="3.63" shape="494.73,593.50 497.61,595.70"/>
    </edge>
    <edge id=":1077566373_2" function="internal">
        <lane id=":1077566373_2_0" index="0" allow="tram" speed="13.89" length="13.75" shape="490.90,601.16 500.22,591.06"/>
    </edge>
    <edge id=":1077566456_0" function="internal">
        <lane id=":1077566456_0_0" index="0" allow="tram" speed="13.89" length="5.04" shape="489.88,606.59 486.40,610.24"/>
    </edge>
    <edge id=":1077566701_0" function="internal">
        <lane id=":1077566701_0_0" index="0" allow="tram" speed="13.89" length="5.04" shape="484.40,608.38 487.80,604.65"/>
    </edge>
    <edge id=":1129822994_0" function="internal">
        <lane id=":1129822994_0_0" index="0" allow="delivery bicycle pedestrian" speed="5.56" length="6.30" shape="795.32,598.45 794.59,596.74 793.94,595.63 793.07,594.67 791.70,593.42"/>
    </edge>
    <edge id=":1129822994_1" function="internal">
        <lane id=":1129822994_1_0" index="0" allow="delivery bicycle pedestrian" speed="3.65" length="2.34" shape="795.32,598.45 795.61,597.04 796.21,596.37"/>
    </edge>
    <edge id=":1129822994_4" function="internal">
        <lane id=":1129822994_4_0" index="0" allow="delivery bicycle pedestrian" speed="3.65" length="2.34" shape="796.21,596.37 797.10,596.45 798.29,597.27"/>
    </edge>
    <edge id=":1129822994_2" function="internal">
        <lane id=":1129822994_2_0" index="0" allow="delivery bicycle pedestrian" speed="5.56" length="7.78" shape="793.84,591.04 795.53,592.59 796.60,593.78 797.40,595.15 798.29,597.27"/>
    </edge>
    <edge id=":1129822994_3" function="internal">
        <lane id=":1129822994_3_0" index="0" allow="delivery bicycle pedestrian" speed="3.65" length="2.34" shape="793.84,591.04 794.19,592.43 793.96,593.30"/>
    </edge>
    <edge id=":1129822994_5" function="internal">
        <lane id=":1129822994_5_0" index="0" allow="delivery bicycle pedestrian" speed="3.65" length="2.34" shape="793.96,593.30 793.13,593.62 791.70,593.42"/>
    </edge>
    <edge id=":1282722729_0" function="internal">
        <lane id=":1282722729_0_0" index="0" disallow="tram rail_urban rail rail_electric pedestrian ship" speed="8.33" length="9.42" shape="467.31,574.75 460.19,568.58"/>
    </edge>
    <edge id=":1282722729_1" function="internal">
        <lane id=":1282722729_1_0" index="0" allow="delivery bicycle pedestrian" speed="6.95" length="4.40" shape="467.31,574.75 465.66,572.63 465.36,570.94"/>
    </edge>
    <edge id=":1282722729_2" function="internal">
        <lane id=":1282722729_2_0" index="0" disallow="tram rail_urban rail rail_electric pedestrian ship" speed="3.65" length="2.34" shape="467.31,574.75 466.92,573.36 467.14,572.49"/>
    </edge>
    <edge id=":1282722729_9" function="internal">
        <lane id=":1282722729_9_0" index="0" allow="delivery bicycle pedestrian" speed="6.95" length="7.40" shape="465.36,570.94 465.22,570.17 465.99,567.37 467.97,564.23"/>
    </edge>
    <edge id=":1282722729_10" function="internal">
        <lane id=":1282722729_10_0" index="0" disallow="tram rail_urban rail rail_electric pedestrian ship" speed="3.65" length="2.34" shape="467.14,572.49 467.97,572.15 469.40,572.33"/>
    </edge>
    <edge id=":1282722729_3" function="internal">
        <lane id=":1282722729_3_0" index="0" disallow="tram rail_urban rail rail_electric pedestrian ship" speed="5.87" length="6.87" shape="470.49,566.20 469.19,568.17 468.57,569.84 468.64,571.23 469.40,572.33"/>
    </edge>
    <edge id=":1282722729_4" function="internal">
        <lane id=":1282722729_4_0" index="0" disallow="tram rail_urban rail rail_electric pedestrian ship" speed="6.95" length="12.14" shape="470.49,566.20 467.87,568.88 465.28,570.17 462.72,570.07 460.19,568.58"/>
    </edge>
    <edge id=":1282722729_5" function="internal">
        <lane id=":1282722729_5_0" index="0" allow="delivery bicycle pedestrian" speed="3.65" length="4.67" shape="470.49,566.20 469.12,566.66 468.25,566.48 467.86,565.67 467.97,564.23"/>
    </edge>
    <edge id=":1282722729_6" function="internal">
        <lane id=":1282722729_6_0" index="0" allow="delivery bicycle pedestrian" speed="5.65" length="6.81" shape="462.29,566.16 463.58,566.85 464.95,566.76 466.42,565.89 467.97,564.23"/>
    </edge>
    <edge id=":1282722729_7" function="internal">
        <lane id=":1282722729_7_0" index="0" disallow="tram rail_urban rail rail_electric pedestrian ship" speed="8.33" length="9.41" shape="462.29,566.16 469.40,572.33"/>
    </edge>
    <edge id=":1282722729_8" function="internal">
        <lane id=":1282722729_8_0" index="0" disallow="tram rail_urban rail rail_electric pedestrian ship" speed="3.65" length="2.34" shape="462.29,566.16 462.67,567.55 462.45,568.42"/>
    </edge>
    <edge id=":1282722729_11" function="internal">
        <lane id=":1282722729_11_0" index="0" disallow="tram rail_urban rail rail_electric pedestrian ship" speed="3.65" length="2.34" shape="462.45,568.42 461.62,568.76 460.19,568.58"/>
    </edge>
    <edge id=":1282722740_0" function="internal">
        <lane id=":1282722740_0_0" index="0" allow="delivery bicycle pedestrian" speed="5.70" length="6.69" shape="452.31,561.73 451.08,561.08 449.72,561.16 448.24,561.99 446.63,563.54"/>
    </edge>
    <edge id=":1282722740_1" function="internal">
        <lane id=":1282722740_1_0" index="0" disallow="tram rail_urban rail rail_electric pedestrian ship" speed="8.33" length="5.11" shape="452.31,561.73 448.45,558.38"/>
    </edge>
    <edge id=":1282722740_2" function="internal">
        <lane id=":1282722740_2_0" index="0" disallow="tram rail_urban rail rail_electric pedestrian ship" speed="3.65" length="2.34" shape="452.31,561.73 451.93,560.34 452.15,559.47"/>
    </edge>
    <edge id=":1282722740_9" function="internal">
        <lane id=":1282722740_9_0" index="0" disallow="tram rail_urban rail rail_electric pedestrian ship" speed="3.65" length="2.34" shape="452.15,559.47 452.98,559.13 454.41,559.31"/>
    </edge>
    <edge id=":1282722740_3" function="internal">
        <lane id=":1282722740_3_0" index="0" disallow="tram rail_urban rail rail_electric pedestrian ship" speed="8.33" length="5.31" shape="450.40,555.83 454.41,559.31"/>
    </edge>
    <edge id=":1282722740_4" function="internal">
        <lane id=":1282722740_4_0" index="0" allow="delivery bicycle pedestrian" speed="6.52" length="2.28" shape="450.40,555.83 450.79,556.85 450.44,557.98"/>
    </edge>
    <edge id=":1282722740_5" function="internal">
        <lane id=":1282722740_5_0" index="0" disallow="tram rail_urban rail rail_electric pedestrian ship" speed="3.65" length="2.45" shape="450.40,555.83 450.87,557.20 450.70,558.08 450.60,558.12"/>
    </edge>
    <edge id=":1282722740_10" function="internal">
        <lane id=":1282722740_10_0" index="0" allow="delivery bicycle pedestrian" speed="6.52" length="6.78" shape="450.44,557.98 450.29,558.48 448.90,560.71 446.63,563.54"/>
    </edge>
    <edge id=":1282722740_11" function="internal">
        <lane id=":1282722740_11_0" index="0" disallow="tram rail_urban rail rail_electric pedestrian ship" speed="3.65" length="2.23" shape="450.60,558.12 449.90,558.47 448.45,558.38"/>
    </edge>
    <edge id=":1282722740_6" function="internal">
        <lane id=":1282722740_6_0" index="0" disallow="tram rail_urban rail rail_electric pedestrian ship" speed="5.14" length="5.24" shape="444.21,561.45 448.45,558.38"/>
    </edge>
    <edge id=":1282722740_7" function="internal">
        <lane id=":1282722740_7_0" index="0" disallow="tram rail_urban rail rail_electric pedestrian ship" speed="6.95" length="11.82" shape="444.21,561.45 446.89,558.96 449.48,557.78 451.99,557.90 454.41,559.31"/>
    </edge>
    <edge id=":1282722740_8" function="internal">
        <lane id=":1282722740_8_0" index="0" allow="delivery bicycle pedestrian" speed="3.65" length="4.67" shape="444.21,561.45 445.60,561.06 446.47,561.29 446.81,562.11 446.63,563.54"/>
    </edge>
    <edge id=":1282722744_0" function="internal">
        <lane id=":1282722744_0_0" index="0" allow="delivery bicycle pedestrian" speed="5.56" length="10.16" shape="485.53,524.00 483.89,521.76 483.36,519.52 483.95,517.30 485.65,515.09"/>
    </edge>
    <edge id=":1282722744_1" function="internal">
        <lane id=":1282722744_1_0" index="0" allow="delivery bicycle pedestrian" speed="3.65" length="4.67" shape="485.53,524.00 485.27,522.59 485.56,521.74 486.41,521.47 487.82,521.77"/>
    </edge>
    <edge id=":1282722744_2" function="internal">
        <lane id=":1282722744_2_0" index="0" allow="delivery bicycle pedestrian" speed="5.04" length="5.00" shape="487.88,517.39 487.04,518.47 486.76,519.56 487.02,520.66 487.82,521.77"/>
    </edge>
    <edge id=":1282722744_3" function="internal">
        <lane id=":1282722744_3_0" index="0" allow="delivery bicycle pedestrian" speed="3.65" length="4.67" shape="487.88,517.39 486.46,517.65 485.62,517.36 485.35,516.50 485.65,515.09"/>
    </edge>
    <edge id=":1282722746_0" function="internal">
        <lane id=":1282722746_0_0" index="0" allow="delivery bicycle pedestrian" speed="3.65" length="4.67" shape="354.40,667.33 352.98,667.55 352.14,667.23 351.90,666.37 352.24,664.97"/>
    </edge>
    <edge id=":1282722753_0" function="internal">
        <lane id=":1282722753_0_0" index="0" allow="delivery bicycle pedestrian" speed="5.54" length="4.61" shape="508.80,500.45 507.65,500.06 506.56,500.04 505.53,500.40 504.56,501.13"/>
    </edge>
    <edge id=":1282722753_1" function="internal">
        <lane id=":1282722753_1_0" index="0" allow="delivery bicycle pedestrian" speed="3.65" length="4.67" shape="508.80,500.45 508.07,499.20 508.06,498.31 508.77,497.76 510.19,497.57"/>
    </edge>
    <edge id=":1282722753_2" function="internal">
        <lane id=":1282722753_2_0" index="0" allow="delivery bicycle pedestrian" speed="5.56" length="8.55" shape="502.32,498.84 504.12,497.48 506.04,496.82 508.06,496.85 510.19,497.57"/>
    </edge>
    <edge id=":1282722753_3" function="internal">
        <lane id=":1282722753_3_0" index="0" allow="delivery bicycle pedestrian" speed="3.65" length="4.67" shape="502.32,498.84 503.74,498.57 504.59,498.87 504.86,499.72 504.56,501.13"/>
    </edge>
    <edge id=":1519557038_0" function="internal">
        <lane id=":1519557038_0_0" index="0" allow="bicycle" speed="2.04" length="1.46" width="1.00" shape="22.02,1155.27 21.68,1155.57 21.41,1155.62 21.20,1155.44 21.05,1155.01"/>
    </edge>
    <edge id=":1659064515_0" function="internal">
        <lane id=":1659064515_0_0" index="0" disallow="tram rail_urban rail rail_electric pedestrian ship" speed="5.55" length="6.32" shape="636.04,459.07 634.38,457.87 632.90,457.36 631.60,457.53 630.48,458.37"/>
    </edge>
    <edge id=":1659064515_1" function="internal">
        <lane id=":1659064515_1_0" index="0" allow="delivery bicycle pedestrian" speed="3.65" length="4.67" shape="636.04,459.07 635.64,457.68 635.85,456.81 636.68,456.46 638.11,456.63"/>
    </edge>
    <edge id=":1659064515_2" function="internal">
        <lane id=":1659064515_2_0" index="0" allow="delivery bicycle pedestrian" speed="5.59" length="6.27" shape="636.52,451.26 635.90,452.46 635.96,453.75 636.69,455.14 638.11,456.63"/>
    </edge>
    <edge id=":1659064515_3" function="internal">
        <lane id=":1659064515_3_0" index="0" disallow="tram rail_urban rail rail_electric pedestrian ship" speed="13.89" length="9.30" shape="636.52,451.26 630.48,458.37"/>
        <lane id=":1659064515_3_1" index="1" disallow="tram rail_urban rail rail_electric pedestrian ship" speed="13.89" length="9.30" shape="634.06,449.21 628.06,456.28"/>
    </edge>
    <edge id=":1659064519_0" function="internal">
        <lane id=":1659064519_0_0" index="0" allow="delivery bicycle pedestrian" speed="5.56" length="7.13" shape="684.44,508.57 682.36,508.26 680.91,508.24 679.48,508.54 677.47,509.18"/>
    </edge>
    <edge id=":1659064519_1" function="internal">
        <lane id=":1659064519_1_0" index="0" allow="delivery bicycle pedestrian" speed="5.56" length="4.38" shape="684.44,508.57 682.27,507.87 680.59,506.61"/>
    </edge>
    <edge id=":1659064519_2" function="internal">
        <lane id=":1659064519_2_0" index="0" allow="delivery bicycle pedestrian" speed="3.65" length="2.34" shape="684.44,508.57 683.40,507.57 683.14,506.72"/>
    </edge>
    <edge id=":1659064519_9" function="internal">
        <lane id=":1659064519_9_0" index="0" allow="delivery bicycle pedestrian" speed="5.56" length="4.63" shape="680.59,506.61 679.42,504.79 678.74,502.42"/>
    </edge>
    <edge id=":1659064519_10" function="internal">
        <lane id=":1659064519_10_0" index="0" allow="delivery bicycle pedestrian" speed="3.65" length="2.34" shape="683.14,506.72 683.67,506.00 684.99,505.41"/>
    </edge>
    <edge id=":1659064519_3" function="internal">
        <lane id=":1659064519_3_0" index="0" allow="delivery bicycle pedestrian" speed="5.56" length="5.03" shape="681.89,501.90 682.27,503.27 682.92,504.31 683.82,505.02 684.99,505.41"/>
    </edge>
    <edge id=":1659064519_4" function="internal">
        <lane id=":1659064519_4_0" index="0" allow="delivery bicycle pedestrian" speed="5.56" length="9.42" shape="681.89,501.90 681.96,504.43 681.24,506.49 679.74,508.07 677.47,509.18"/>
    </edge>
    <edge id=":1659064519_5" function="internal">
        <lane id=":1659064519_5_0" index="0" allow="delivery bicycle pedestrian" speed="3.65" length="4.67" shape="681.89,501.90 681.30,503.22 680.57,503.74 679.72,503.47 678.74,502.42"/>
    </edge>
    <edge id=":1659064519_6" function="internal">
        <lane id=":1659064519_6_0" index="0" allow="delivery bicycle pedestrian" speed="5.23" length="4.82" shape="676.47,506.14 677.63,505.57 678.40,504.76 678.77,503.71 678.74,502.42"/>
    </edge>
    <edge id=":1659064519_7" function="internal">
        <lane id=":1659064519_7_0" index="0" allow="delivery bicycle pedestrian" speed="5.56" length="8.71" shape="676.47,506.14 678.92,505.36 680.67,505.00 682.45,505.03 684.99,505.41"/>
    </edge>
    <edge id=":1659064519_8" function="internal">
        <lane id=":1659064519_8_0" index="0" allow="delivery bicycle pedestrian" speed="3.65" length="2.34" shape="676.47,506.14 677.86,506.53 678.49,507.16"/>
    </edge>
    <edge id=":1659064519_11" function="internal">
        <lane id=":1659064519_11_0" index="0" allow="delivery bicycle pedestrian" speed="3.65" length="2.34" shape="678.49,507.16 678.36,508.05 677.47,509.18"/>
    </edge>
    <edge id=":1659064522_0" function="internal">
        <lane id=":1659064522_0_0" index="0" allow="delivery bicycle pedestrian" speed="5.56" length="5.64" shape="724.20,532.54 722.92,531.48 722.14,530.64 721.54,529.64 720.82,528.14"/>
    </edge>
    <edge id=":1659064522_1" function="internal">
        <lane id=":1659064522_1_0" index="0" allow="delivery bicycle pedestrian" speed="3.65" length="2.34" shape="724.20,532.54 723.75,531.17 723.93,530.30"/>
    </edge>
    <edge id=":1659064522_4" function="internal">
        <lane id=":1659064522_4_0" index="0" allow="delivery bicycle pedestrian" speed="3.65" length="2.34" shape="723.93,530.30 724.74,529.92 726.18,530.03"/>
    </edge>
    <edge id=":1659064522_2" function="internal">
        <lane id=":1659064522_2_0" index="0" allow="delivery bicycle pedestrian" speed="5.56" length="4.15" shape="723.72,526.77 724.24,527.88 724.67,528.62 725.24,529.25 726.18,530.03"/>
    </edge>
    <edge id=":1659064522_3" function="internal">
        <lane id=":1659064522_3_0" index="0" allow="delivery bicycle pedestrian" speed="3.65" length="2.34" shape="723.72,526.77 723.51,528.20 722.95,528.90"/>
    </edge>
    <edge id=":1659064522_5" function="internal">
        <lane id=":1659064522_5_0" index="0" allow="delivery bicycle pedestrian" speed="3.65" length="2.34" shape="722.95,528.90 722.06,528.88 720.82,528.14"/>
    </edge>
    <edge id=":1659064546_0" function="internal">
        <lane id=":1659064546_0_0" index="0" disallow="tram rail_urban rail rail_electric pedestrian ship" speed="13.89" length="9.32" shape="555.25,648.25 548.17,642.20"/>
    </edge>
    <edge id=":1659064546_1" function="internal">
        <lane id=":1659064546_1_0" index="0" allow="delivery bicycle pedestrian" speed="7.34" length="4.53" shape="555.25,648.25 553.49,646.04 553.17,644.37"/>
    </edge>
    <edge id=":1659064546_2" function="internal">
        <lane id=":1659064546_2_0" index="0" disallow="tram rail_urban rail rail_electric pedestrian ship" speed="3.65" length="2.34" shape="555.25,648.25 554.87,646.86 555.09,646.00"/>
    </edge>
    <edge id=":1659064546_9" function="internal">
        <lane id=":1659064546_9_0" index="0" allow="delivery bicycle pedestrian" speed="7.34" length="7.35" shape="553.17,644.37 553.02,643.56 553.85,640.83 555.97,637.83"/>
    </edge>
    <edge id=":1659064546_10" function="internal">
        <lane id=":1659064546_10_0" index="0" disallow="tram rail_urban rail rail_electric pedestrian ship" speed="3.65" length="2.34" shape="555.09,646.00 555.91,645.65 557.35,645.83"/>
    </edge>
    <edge id=":1659064546_3" function="internal">
        <lane id=":1659064546_3_0" index="0" disallow="tram rail_urban rail rail_electric pedestrian ship" speed="5.69" length="6.71" shape="558.36,639.95 557.03,641.75 556.41,643.34 556.52,644.70 557.35,645.83"/>
    </edge>
    <edge id=":1659064546_4" function="internal">
        <lane id=":1659064546_4_0" index="0" disallow="tram rail_urban rail rail_electric pedestrian ship" speed="7.40" length="11.77" shape="558.36,639.95 555.66,642.42 553.07,643.62 550.57,643.54 548.17,642.20"/>
    </edge>
    <edge id=":1659064546_5" function="internal">
        <lane id=":1659064546_5_0" index="0" allow="delivery bicycle pedestrian" speed="3.65" length="4.67" shape="558.36,639.95 556.97,640.32 556.10,640.09 555.77,639.26 555.97,637.83"/>
    </edge>
    <edge id=":1659064546_6" function="internal">
        <lane id=":1659064546_6_0" index="0" allow="delivery bicycle pedestrian" speed="5.76" length="6.73" shape="550.24,639.75 551.46,640.36 552.82,640.24 554.32,639.40 555.97,637.83"/>
    </edge>
    <edge id=":1659064546_7" function="internal">
        <lane id=":1659064546_7_0" index="0" disallow="tram rail_urban rail rail_electric pedestrian ship" speed="13.89" length="9.36" shape="550.24,639.75 557.35,645.83"/>
    </edge>
    <edge id=":1659064546_8" function="internal">
        <lane id=":1659064546_8_0" index="0" disallow="tram rail_urban rail rail_electric pedestrian ship" speed="3.65" length="2.34" shape="550.24,639.75 550.64,641.14 550.42,642.01"/>
    </edge>
    <edge id=":1659064546_11" function="internal">
        <lane id=":1659064546_11_0" index="0" disallow="tram rail_urban rail rail_electric pedestrian ship" speed="3.65" length="2.34" shape="550.42,642.01 549.60,642.36 548.17,642.20"/>
    </edge>
    <edge id=":1659064558_0" function="internal">
        <lane id=":1659064558_0_0" index="0" disallow="tram rail_urban rail rail_electric pedestrian ship" speed="13.89" length="4.60" shape="607.45,692.67 603.97,689.66"/>
    </edge>
    <edge id=":1659064558_1" function="internal">
        <lane id=":1659064558_1_0" index="0" disallow="tram rail_urban rail rail_electric pedestrian ship" speed="3.65" length="2.34" shape="607.45,692.67 607.06,691.28 607.28,690.41"/>
    </edge>
    <edge id=":1659064558_4" function="internal">
        <lane id=":1659064558_4_0" index="0" disallow="tram rail_urban rail rail_electric pedestrian ship" speed="3.65" length="2.34" shape="607.28,690.41 608.11,690.07 609.54,690.25"/>
    </edge>
    <edge id=":1659064558_2" function="internal">
        <lane id=":1659064558_2_0" index="0" disallow="tram rail_urban rail rail_electric pedestrian ship" speed="13.89" length="4.59" shape="606.07,687.24 609.54,690.25"/>
    </edge>
    <edge id=":1659064558_3" function="internal">
        <lane id=":1659064558_3_0" index="0" disallow="tram rail_urban rail rail_electric pedestrian ship" speed="3.65" length="2.34" shape="606.07,687.24 606.45,688.63 606.23,689.50"/>
    </edge>
    <edge id=":1659064558_5" function="internal">
        <lane id=":1659064558_5_0" index="0" disallow="tram rail_urban rail rail_electric pedestrian ship" speed="3.65" length="2.34" shape="606.23,689.50 605.40,689.84 603.97,689.66"/>
    </edge>
    <edge id=":1692375301_0" function="internal">
        <lane id=":1692375301_0_0" index="0" allow="tram" speed="13.89" length="5.06" shape="502.71,588.47 506.14,584.74"/>
    </edge>
    <edge id=":1692375303_0" function="internal">
        <lane id=":1692375303_0_0" index="0" allow="tram" speed="13.89" length="5.05" shape="508.14,586.58 504.80,590.37"/>
    </edge>
    <edge id=":1737273389_0" function="internal">
        <lane id=":1737273389_0_0" index="0" disallow="tram rail_urban rail rail_electric pedestrian ship" speed="13.89" length="0.30" shape="509.76,613.96 509.53,613.76"/>
        <lane id=":1737273389_0_1" index="1" disallow="tram rail_urban rail rail_electric pedestrian ship" speed="13.89" length="0.30" shape="511.82,611.51 511.59,611.32"/>
    </edge>
    <edge id=":1737273389_2" function="internal">
        <lane id=":1737273389_2_0" index="0" disallow="tram rail_urban rail rail_electric pedestrian ship" speed="3.65" length="2.34" shape="511.82,611.51 511.42,610.13 511.63,609.26"/>
    </edge>
    <edge id=":1737273389_5" function="internal">
        <lane id=":1737273389_5_0" index="0" disallow="tram rail_urban rail rail_electric pedestrian ship" speed="3.65" length="2.34" shape="511.63,609.26 512.45,608.90 513.88,609.07"/>
    </edge>
    <edge id=":1737273389_3" function="internal">
        <lane id=":1737273389_3_0" index="0" disallow="tram rail_urban rail rail_electric pedestrian ship" speed="13.89" length="0.30" shape="513.66,608.88 513.88,609.07"/>
    </edge>
    <edge id=":1737273389_4" function="internal">
        <lane id=":1737273389_4_0" index="0" disallow="tram rail_urban rail rail_electric pedestrian ship" speed="3.65" length="2.34" shape="513.66,608.88 514.06,610.26 513.85,611.13"/>
    </edge>
    <edge id=":1737273389_6" function="internal">
        <lane id=":1737273389_6_0" index="0" disallow="tram rail_urban rail rail_electric pedestrian ship" speed="3.65" length="2.34" shape="513.85,611.13 513.02,611.48 511.59,611.32"/>
    </edge>
    <edge id=":1737279708_0" function="internal">
        <lane id=":1737279708_0_0" index="0" allow="bicycle" speed="11.11" length="0.89" width="1.00" shape="649.45,730.59 649.23,730.45 649.08,730.46 648.97,730.62 648.92,730.91"/>
    </edge>
    <edge id=":1737279708_1" function="internal">