<?xml version="1.0" encoding="UTF-8"?>

<!-- generated on Wed Mar  6 15:21:32 2019 by Eclipse SUMO duarouter Version 1.1.0
<configuration xmlns:xsi="http://www.w3.org/2001/XMLSchema-instance" xsi:noNamespaceSchemaLocation="http://sumo.dlr.de/xsd/duarouterConfiguration.xsd">

    <input>
        <net-file value="hochschule_muenchen.net.xml"/>
        <route-files value="hochschule_muenchen.pedestrians.trips.xml"/>
    </input>

    <output>
        <output-file value="hochschule_muenchen.pedestrians.rou.xml"/>
        <alternatives-output value="hochschule_muenchen.pedestrians.rou.alt.xml"/>
    </output>

    <time>
        <begin value="0"/>
        <end value="3600"/>
    </time>

    <report>
        <no-warnings value="true"/>
        <ignore-errors value="true"/>
        <no-step-log value="true"/>
    </report>

</configuration>
-->

<routes xmlns:xsi="http://www.w3.org/2001/XMLSchema-instance" xsi:noNamespaceSchemaLocation="http://sumo.dlr.de/xsd/routes_file.xsd">
    <vType id="pedestrian" vClass="pedestrian"/>
    <person id="0" type="pedestrian" depart="0.00">
        <walk edges="346311439#0 313576543#0 38759698 -433685557#1 -433685557#0 -97594013#3 97594013#2"/>
    </person>
    <person id="1" type="pedestrian" depart="0.80">
        <walk edges="161766614#0 38759699#0 313576543#3 81270236#5 161652311#0 423144839 423144840 423144842 421561977#0"/>
    </person>
    <person id="2" type="pedestrian" depart="1.60">
        <walk edges="346311429 346311427#0 161652311#8 161652311#7 161652311#6 161652311#5 153191826#1 450402225#3 450402225#4"/>
    </person>
    <person id="3" type="pedestrian" depart="2.40">
        <walk edges="4520030#1 -4520030#1 -4520030#2 -4520030#3 -24998362#0 -24998362#1 -24998362#2 -24998362#3 -24998362#4 -24998362#5 -24998362#6 -24998362#7 -433685522"/>
    </person>
    <person id="4" type="pedestrian" depart="3.20">
        <walk edges="81270236#0 81270236#1"/>
    </person>
    <person id="5" type="pedestrian" depart="4.00">
        <walk edges="346311429 346311427#0 161652311#8 161652311#7 161652311#6 161652311#5 153191826#0 -278513971#3 -278513971#2 -278513971#1 -278513971#0 -38349617#0 -38349617#1 -38349617#2 38759699#0 38759699#1 38759699#2 38759699#3 -433685596#1 -433685596#0 433685536#1 433685536#0 272438832#2"/>
    </person>
    <person id="6" type="pedestrian" depart="4.80">
        <walk edges="450402225#3 153191826#1 161652311#5 161652311#6 161652311#7 161652311#8 346311427#0 346311429 346311435 346311431"/>
    </person>
    <person id="7" type="pedestrian" depart="5.60">
        <walk edges="-4520030#1 -4520030#2 -4520030#3 -24998362#0 161652311#9 161652311#8 161652311#7 161652311#6 161652311#5 153191826#0 -278513971#3 -278513971#2 -278513971#1 -278513971#0 -38349617#0 -38349617#1 -38349617#2 313576543#3 81270236#4 81270236#3 81270236#2 81270236#1 37280968#1 37280968#2 -4673735#0 -4673735#1 -112974395#2"/>
    </person>
    <person id="8" type="pedestrian" depart="6.40">
        <walk edges="392096581 161766613#1 161766613#0 -4520030#3 -24998362#0 -24998362#1 -24998362#2 -24998362#3 -24998362#4 -24998362#5 -24998362#6 97594014#0 97594014#1 97594014#2 346311440 450396594 450396599"/>
    </person>
    <person id="9" type="pedestrian" depart="7.20">
        <walk edges="-278513971#5 -292630184#0 -24998362#0 -24998362#1 -24998362#2 -24998362#3 -24998362#4 -24998362#5 -24998362#6 -24998362#7 -24998362#8"/>
    </person>
    <person id="10" type="pedestrian" depart="8.00">
        <walk edges="-450367725 -97594013#1 -97594013#0 -97594014#2 -97594014#1 -97594014#0 -24998362#6 -24998362#5 -24998362#4 -24998362#3 -24998362#2 -24998362#1"/>
    </person>
    <person id="11" type="pedestrian" depart="8.80">
        <walk edges="-292630184#1 -24998362#0 161652311#9 161652311#8 161652311#7 161652311#6 161652311#5 153191826#0 -278513971#3 -278513971#2 -278513971#1 -278513971#0 -38349617#0 38349617#1"/>
    </person>
    <person id="12" type="pedestrian" depart="9.60">
        <walk edges="-4673735#1 -4673735#0 37280968#2 37280968#1 81270236#1 81270236#2 81270236#3 81270236#4 313576543#3 -38349617#2 -38349617#1 -38349617#0 -278513971#0 -278513971#1 -278513971#2 -278513971#3 153191826#0 161652311#5 161652311#6 161652311#7 161652311#8 161652311#9 -24998362#0 -4520030#3 -4520030#2"/>
    </person>
    <person id="13" type="pedestrian" depart="10.40">
        <walk edges="4673735#2 -4673735#1 -4673735#0 37280968#2 37280968#1 81270236#1 81270236#2 81270236#3 81270236#4 313576543#3 -38349617#2 -38349617#1 -38349617#0 -278513971#0 -278513971#1 -278513971#2 -278513971#3 153191826#0 161652311#5 161652311#6 161652311#7 161652311#8 161652311#9 -24998362#0 -292630184#1"/>
    </person>
    <person id="14" type="pedestrian" depart="11.20">
        <walk edges="163989143#3 -37280969#0 -37280969#1 -37280969#2 -38349617#2 -38349617#1 -38349617#0 -278513971#0 -278513971#1 -278513971#2 -278513971#3 153191826#0 161652311#5 161652311#6 161652311#7 161652311#8 161652311#9 -24998362#0 -292630184#1 4520029#0"/>
    </person>
    <person id="15" type="pedestrian" depart="12.00">
        <walk edges="97594013#2 -97594013#1 -97594013#0 -97594014#2 -97594014#1 -97594014#0 -24998362#6 -303809481 -423191014 423191015#1 423191019#0 -4520029#4 -4520029#3 -4520029#2"/>
    </person>
    <person id="16" type="pedestrian" depart="12.80">
        <walk edges="24998362#10 -24998362#9 -24998362#8 -24998362#7 97594014#0 346311427#3"/>
    </person>
    <person id="17" type="pedestrian" depart="13.60">
        <walk edges="-35835807 -4520030#1 -4520030#2 -4520030#3 -24998362#0 -24998362#1 -24998362#2 -24998362#3 -24998362#4 -24998362#5 -24998362#6 -24998362#7 -24998362#8 -24998362#9 -450396602#3 -450396602#2 450396602#1"/>
    </person>
    <person id="18" type="pedestrian" depart="14.40">
        <walk edges="346311438 161652311#5 153191826#0 -278513971#3 -278513971#2 -278513971#1 -278513971#0 -38349617#0 -38349617#1 -38349617#2 -37280969#2 -37280969#1 -37280969#0 -163989143#3 -163989143#2 -163989143#1 -163989143#0 112974396#0 433685615 433685530#1 433685530#0"/>
    </person>
    <person id="19" type="pedestrian" depart="15.20">
        <walk edges="346311427#1 346311427#2 -97594014#0 -24998362#7 -24998362#8 24998362#9"/>
    </person>
    <person id="20" type="pedestrian" depart="16.00">
        <walk edges="-450396602#1 450396602#2 346311427#3 -97594014#0 -24998362#6 -24998362#5 -24998362#4 -24998362#3 -24998362#2 -24998362#1 161652311#9 161652311#8 161652311#7 161652311#6 161652311#5 153191826#0 -278513971#3 -278513971#2 -278513971#1 -278513971#0 -38349617#0 -38349617#1 -38349617#2 -37280969#2 -37280969#1 -37280969#0 163989143#3"/>
    </person>
    <person id="21" type="pedestrian" depart="16.80">
        <walk edges="450402223 450402225#0 153191825#1 153191825#2 153191823#0 -153191823#0"/>
    </person>
    <person id="22" type="pedestrian" depart="17.60">
        <walk edges="24998362#10 -24998362#9 -24998362#8 -24998362#7 -24998362#6 -24998362#5 -24998362#4 -24998362#3 -24998362#2 -24998362#1 161652311#9 161652311#8 161652311#7 161652311#6 161652311#5 153191826#0 -278513971#3 -278513971#2 -278513971#1 -278513971#0 -38349617#0 -38349617#1 -38349617#2 -37280969#2 -37280969#1 -37280969#0 -163989143#3 -163989143#2 -163989143#1 -163989143#0 112974396#0 433685615 433685530#1"/>
    </person>
    <person id="24" type="pedestrian" depart="19.20">
        <walk edges="-429102599 -4060426#1 -163989143#0 112974395#0 112974395#1 112974395#2"/>
    </person>
    <person id="25" type="pedestrian" depart="20.00">
        <walk edges="112974395#0 -163989143#1 -163989143#2 -163989143#3 -37280969#0 -37280969#1 -37280969#2 -38349617#2 -38349617#1 -38349617#0 -278513971#0 -278513971#1 -278513971#2 -278513971#3 153191826#0 161652311#5 346311438"/>
    </person>
    <person id="26" type="pedestrian" depart="20.80">
        <walk edges="-292630184#1 -24998362#0 161652311#9 161652311#8 161652311#7 161652311#6 161652311#5 153191826#0 -278513971#3 -278513971#2 -278513971#1 -278513971#0 -38349617#0 -38349617#1 -38349617#2 38759699#0 38759699#1 38759699#2 38759699#3 -433685596#1 -433685596#0 433685536#1 433685536#0 272438832#1 433685623"/>
    </person>
    <person id="27" type="pedestrian" depart="21.60">
        <walk edges="-163989143#0 -163989143#1 -163989143#2 -163989143#3 -37280969#0 -37280969#1 -37280969#2 -38349617#2 -38349617#1 -38349617#0 -278513971#0 -278513971#1 -278513971#2 -278513971#3 153191826#0 161652311#5 161652311#6 161652311#7 161652311#8 161652311#9 -24998362#1 303809479"/>
    </person>
    <person id="28" type="pedestrian" depart="22.40">
        <walk edges="450402225#2 450402225#3 153191823#1 161652311#1 161652311#0 81270236#5 81270236#4 81270236#3 81270236#2 81270236#1 37280968#1 -447779110#1 -447779110#0"/>
    </person>
    <person id="29" type="pedestrian" depart="23.20">
        <walk edges="-112974396#1 -112974396#0 -163989143#0 -163989143#1 -163989143#2 -163989143#3 -37280969#0 -37280969#1 -37280969#2 313576543#3 313576543#2 313576543#1 346311439#0"/>
    </person>
    <person id="30" type="pedestrian" depart="24.00">
        <walk edges="-24998362#8 -24998362#7 -24998362#6 -24998362#5 -24998362#4 -24998362#3 -24998362#2 -24998362#1 161652311#9 161652311#8 161652311#7 161652311#6 161652311#5 153191826#0 -278513971#3 -278513971#2 -278513971#1 -278513971#0 -38349617#0 -38349617#1 -38349617#2 313576543#3 81270236#4 81270236#3 81270236#2 81270236#1 37280968#1 37280968#2 -4673735#0 -4673735#1"/>
    </person>
    <person id="31" type="pedestrian" depart="24.80">
        <walk edges="-292630184#0 -292630184#1"/>
    </person>
    <person id="32" type="pedestrian" depart="25.60">
        <walk edges="-4520029#0 -292630184#1 -24998362#0 161652311#9 161652311#8 -37693892#0 -278513971#4"/>
    </person>
    <person id="33" type="pedestrian" depart="26.40">
        <walk edges="346311428 346311438 161652311#6 161652311#7 161652311#8 161652311#9 -24998362#0 -292630184#1 4520029#0"/>
    </person>
    <person id="34" type="pedestrian" depart="27.20">
        <walk edges="379810633 161652311#3 161652311#4 161652311#5 161652311#6 161652311#7 161652311#8 161652311#9 -24998362#1 -24998362#2 -24998362#3 -24998362#4 -24998362#5 -24998362#6 -24998362#7 -24998362#8 -24998362#9 -450396602#3 450396602#3"/>
    </person>
    <person id="35" type="pedestrian" depart="28.00">
        <walk edges="278513971#3 153191826#0 161652311#5 161652311#6 161652311#7 161652311#8 161652311#9 -24998362#1"/>
    </person>
    <person id="36" type="pedestrian" depart="28.80">
        <walk edges="-37280969#0 -37280969#1 -37280969#2 -38349617#2 -38349617#1 -38349617#0 278513971#0"/>
    </person>
    <person id="37" type="pedestrian" depart="29.60">
        <walk edges="-4060426#1 -163989143#0 -163989143#1 -163989143#2 -163989143#3 -37280969#0 -37280969#1 -37280969#2 -38349617#2 -38349617#1 -38349617#0 -278513971#0 -278513971#1 -278513971#2 -278513971#3 153191826#0 161652311#5 161652311#6 161652311#7 161652311#8 161652311#9 -24998362#0 -292630184#1 -4520029#0 161652311#11"/>
    </person>
    <person id="38" type="pedestrian" depart="30.40">
        <walk edges="346311434 346311436 346311432 346311428 346311438 161652311#5 161652311#4 161652311#3 161652311#2 161652311#1 423144839 423144840 423144842 421561977#1 421561977#2 421561971"/>
    </person>
    <person id="39" type="pedestrian" depart="31.20">
        <walk edges="303809478#0 -423191014 423191015#0 -24998362#4 -24998362#3 -24998362#2 -24998362#1 161652311#9 161652311#8 161652311#7 161652311#6 161652311#5 153191826#0 -278513971#3 -278513971#2 -278513971#1 -278513971#0 -38349617#0 -38349617#1 -38349617#2 -37280969#2 -37280969#1 -37280969#0 -163989143#3 -163989143#2 -163989143#1 163989143#0"/>
    </person>
    <person id="40" type="pedestrian" depart="32.00">
        <walk edges="161652311#11 -4520029#1 -4520029#2 -4520029#3 -4520029#4 423191019#0 423191015#1 423191029 303809478#1 -24998362#6 97594014#0 346311427#3"/>
    </person>
    <person id="41" type="pedestrian" depart="32.80">
        <walk edges="-274158312 -4520029#4 423191019#0 423191015#1 423191029 303809478#0"/>
    </person>
    <person id="42" type="pedestrian" depart="33.60">
        <walk edges="303809478#0 -423191014 423191015#0"/>
    </person>
    <person id="43" type="pedestrian" depart="34.40">
        <walk edges="-4520029#1 -4520029#0 -292630184#1 -24998362#0 161652311#9 161652311#8 161652311#7 161652311#6 161652311#5 153191826#0 -278513971#3 -278513971#2 -278513971#1 -278513971#0 -38349617#0 -38349617#1 -38349617#2 -37280969#2 -37280969#1 -37280969#0 -163989143#3"/>
    </person>
    <person id="44" type="pedestrian" depart="35.20">
        <walk edges="81270236#3 81270236#4 313576543#3 -38349617#2 -38349617#1 -38349617#0 -278513971#0 -278513971#1 -278513971#2 -278513971#3 153191826#0 161652311#5 161652311#6 161652311#7 161652311#8 161652311#9 -24998362#1 -24998362#2 -24998362#3 -24998362#4 -24998362#5 -24998362#6 -24998362#7"/>
    </person>
    <person id="45" type="pedestrian" depart="36.00">
        <walk edges="-4520029#5 423191019#0 423191015#1 423191029 303809478#1 -24998362#6 97594014#0 97594014#1 97594014#2 346311440 450396594 450396599"/>
    </person>
    <person id="46" type="pedestrian" depart="36.80">
        <walk edges="-163989143#1 -163989143#2 -163989143#3 -37280969#0 -37280969#1 -37280969#2 -38349617#2 -38349617#1 -38349617#0 -278513971#0 -278513971#1 -278513971#2 -278513971#3 153191826#0 161652311#5 161652311#6 161652311#7 161652311#8 161652311#9 -24998362#1 -24998362#2 -24998362#3 -24998362#4 24998362#5"/>
    </person>
    <person id="47" type="pedestrian" depart="37.60">
        <walk edges="-4673735#3 -4673735#2 -4673735#1 -4673735#0 37280968#2 37280968#1 81270236#1 81270236#2 81270236#3 81270236#4 313576543#3 -38349617#2 -38349617#1 -38349617#0 -278513971#0 -278513971#1 -278513971#2 -278513971#3 153191826#0 161652311#5 161652311#6 161652311#7 161652311#8 161652311#9 -24998362#1 -24998362#2 -24998362#3 -24998362#4 -24998362#5 -24998362#6 -24998362#7 -24998362#8 -433685594"/>
    </person>
    <person id="48" type="pedestrian" depart="38.40">
        <walk edges="-278513971#2 -278513971#1 -278513971#0 -38349617#0 -38349617#1 -38349617#2 313576543#3 81270236#4 81270236#3 81270236#2 81270236#1 37280968#1 37280968#2 -4673735#0 -4673735#1 -112974395#2"/>
    </person>
    <person id="49" type="pedestrian" depart="39.20">
        <walk edges="433685597 433685604#0 433685604#1 -112974395#1 112974395#0 -163989143#1 -163989143#2 -163989143#3 -37280969#0 -37280969#1 -37280969#2 -38349617#2 -38349617#1 -38349617#0 -278513971#0 -278513971#1 -278513971#2 -278513971#3 153191826#0 161652311#5 161652311#6 161652311#7 161652311#8 161652311#9 -24998362#1 -24998362#2 -24998362#3 -24998362#4 -24998362#5 -24998362#6 -24998362#7 -433685522"/>
    </person>
    <person id="50" type="pedestrian" depart="40.00">
        <walk edges="4673735#1 -4673735#0 37280968#2 37280968#1 81270236#1 81270236#2 81270236#3 81270236#4 313576543#3 -38349617#2 -38349617#1 -38349617#0 -278513971#0 -278513971#1 -278513971#2 -278513971#3 153191826#0 161652311#5 161652311#6 161652311#7 161652311#8 161652311#9 -24998362#1 -24998362#2 -24998362#3 -24998362#4 -24998362#5 -303809481"/>
    </person>
    <person id="51" type="pedestrian" depart="40.80">
        <walk edges="161652311#3 161652311#4 161652311#5 161652311#6 161652311#7 161652311#8 161652311#9 -24998362#1 -24998362#2 -24998362#3 24998362#4"/>
    </person>
    <person id="52" type="pedestrian" depart="41.60">
        <walk edges="38349616 313576542#1 161766614#4 161766614#3 161766614#2 161766614#1 38759699#0 -37280969#2 -37280969#1 -37280969#0 -163989143#3 -163989143#2 -163989143#1 -163989143#0 -4060426#1 429102599"/>
    </person>
    <person id="53" type="pedestrian" depart="42.40">
        <walk edges="303588543#1 303809479 -24998362#1 161652311#9 161652311#8 161652311#7 161652311#6 161652311#5 161652311#4 161652311#3 161652311#2 161652311#1 423144839 423144840 423144842 421561977#0 421561972 421561976"/>
    </person>
    <person id="54" type="pedestrian" depart="43.20">
        <walk edges="4520029#0 -292630184#1 4520030#3"/>
    </person>
    <person id="55" type="pedestrian" depart="44.00">
        <walk edges="423144839 161652311#0 81270236#5 313576543#3 -38349617#2 -38349617#1 -38349617#0"/>
    </person>
    <person id="56" type="pedestrian" depart="44.80">
        <walk edges="161652311#3 161652311#4 153191826#1"/>
    </person>
    <person id="57" type="pedestrian" depart="45.60">
        <walk edges="433685604#0 433685604#1 -112974395#1 112974395#0 -163989143#1 -163989143#2 -163989143#3 -37280969#0 -37280969#1 -37280969#2 -38349617#2 -38349617#1 -38349617#0 -278513971#0 -278513971#1 -278513971#2 -278513971#3 153191826#0 161652311#5 161652311#6 346311441"/>
    </person>
    <person id="58" type="pedestrian" depart="46.40">
        <walk edges="24998362#1 161652311#9 161652311#8 161652311#7 161652311#6 161652311#5 153191826#0 -278513971#3 -278513971#2 -278513971#1 -278513971#0 -38349617#0 -38349617#1 -38349617#2 38759699#0 38759699#1 38759699#2 38759699#3 -433685596#1 -433685596#0 433685536#1 433685536#0 272438832#2"/>
    </person>
    <person id="59" type="pedestrian" depart="47.20">
        <walk edges="346311441"/>
    </person>
    <person id="60" type="pedestrian" depart="48.00">
        <walk edges="161652311#11 -4520029#1 -4520029#2 -4520029#3 -4520029#4 423191019#0 423191015#1 423191029 303809478#1 -24998362#6 -24998362#7 -24998362#8 -24998362#9 -450396602#3 -450396602#2 -450396602#1 -450396602#0"/>
    </person>
    <person id="61" type="pedestrian" depart="48.80">
        <walk edges="450396604 -97594014#1 346311427#2 346311427#1 346311429 346311435 346311431"/>
    </person>
    <person id="62" type="pedestrian" depart="49.60">
        <walk edges="24998362#5 -24998362#4 -24998362#3 -24998362#2 -24998362#1 161652311#9 161652311#8 161652311#7 161652311#6 161652311#5 153191826#0 -278513971#3 -278513971#2 -278513971#1 -278513971#0 -38349617#0 -38349617#1 -38349617#2 -37280969#2 -37280969#1 -37280969#0 -163989143#3 -163989143#2 -163989143#1 -163989143#0 -4060426#1 -429102599"/>
    </person>
    <person id="63" type="pedestrian" depart="50.40">
        <walk edges="-163989143#1 -163989143#0 -4060426#1 -4060426#0"/>
    </person>
    <person id="64" type="pedestrian" depart="51.20">
        <walk edges="161652311#3 161652311#2 161652311#1 161652311#0 81270236#5 313576543#2"/>
    </person>
    <person id="65" type="pedestrian" depart="52.00">
        <walk edges="24998362#10 -24998362#9 -24998362#8 -24998362#7 -24998362#6 -24998362#5 -24998362#4 -24998362#3 -24998362#2 -24998362#1 161652311#9 161652311#8 161652311#7 161652311#6 161652311#5 161652311#4 161652311#3 161652311#2 161652311#1 423144839 423144840 423144842 421561977#1 421561977#2 421561971 421561992"/>
    </person>
    <person id="66" type="pedestrian" depart="52.80">
        <walk edges="38759699#2 38759699#1 161766614#1 161766614#2 161766614#3 161766614#4 313576542#1"/>
    </person>
    <person id="67" type="pedestrian" depart="53.60">
        <walk edges="433685557#1 38759698 313576543#0 313576543#1 313576543#2 81270236#5 161652311#0 161652311#1"/>
    </person>
    <person id="68" type="pedestrian" depart="54.40">
        <walk edges="313258257 303588543#1 303809479 -24998362#1 161652311#9 161652311#8 161652311#7 161652311#6 161652311#5 153191826#0 -278513971#3 -278513971#2 -278513971#1 -278513971#0 -38349617#0 -38349617#1 -38349617#2 -37280969#2 -37280969#1 -37280969#0 -163989143#3 -163989143#2 -163989143#1 112974395#0 112974395#1 433685604#1"/>
    </person>
    <person id="69" type="pedestrian" depart="55.20">
        <walk edges="274151215 -4520029#5 -4520029#4 -4520029#3 -4520029#2 -4520029#1 -4520029#0 -292630184#1 -24998362#0 161652311#9 161652311#8 161652311#7 161652311#6 161652311#5 153191826#0 -278513971#3 -278513971#2 -278513971#1 -278513971#0 -38349617#0 -38349617#1 -38349617#2 313576543#3 313576543#2"/>
    </person>
    <person id="70" type="pedestrian" depart="56.00">
        <walk edges="161652311#3 161652311#4 161652311#5 161652311#6 161652311#7 161652311#8 161652311#9 -24998362#0 -292630184#1 -4520029#0 -4520029#1 -4520029#2 -4520029#3 -4520029#4 4520029#5"/>
    </person>
    <person id="71" type="pedestrian" depart="56.80">
        <walk edges="38349617#0 -38349617#1 -38349617#2 313576543#3 313576543#2 313576543#1 346311439#0"/>
    </person>
    <person id="72" type="pedestrian" depart="57.60">
        <walk edges="-433685522 -24998362#7 -24998362#6 -24998362#5 -24998362#4 -24998362#3 -24998362#2 -24998362#1 161652311#9 161652311#8 161652311#7 161652311#6 161652311#5 153191826#0 -278513971#3 -278513971#2 -278513971#1 -278513971#0 -38349617#0 -38349617#1 -38349617#2 -37280969#2 -37280969#1 -37280969#0 -163989143#3 -163989143#2 -163989143#1 -163989143#0 -4060426#1"/>
    </person>
    <person id="73" type="pedestrian" depart="58.40">
        <walk edges="231002061 -4520030#2 -4520030#3 -24998362#0 161652311#9 161652311#8 161652311#7 161652311#6 161652311#5 153191826#0 -278513971#3 -278513971#2 -278513971#1 -278513971#0 -38349617#0 -38349617#1 -38349617#2 38759699#0 38759699#1 38759699#2 38759699#3"/>
    </person>
    <person id="74" type="pedestrian" depart="59.20">
        <walk edges="450396615 -97594013#3 153191823#0 153191823#1 161652311#1 423144839 423144840 423144842 421561977#1 421561977#2 421561971"/>
    </person>
    <person id="75" type="pedestrian" depart="60.00">
        <walk edges="-4520029#2 -4520029#1 -4520029#0 -292630184#1 -24998362#0 161652311#9 161652311#8 161652311#7 161652311#6 161652311#5 153191826#0 278513971#4"/>
    </person>
    <person id="76" type="pedestrian" depart="60.80">
        <walk edges="346311430 346311427#2 97594014#1 97594014#2 346311440 450396594"/>
    </person>
    <person id="77" type="pedestrian" depart="61.60">
        <walk edges="4673735#1 -4673735#0 37280968#2 37280968#1"/>
    </person>
    <person id="78" type="pedestrian" depart="62.40">
        <walk edges="433685532 433685604#1 -112974395#1 112974395#0 -163989143#1 -163989143#2 -163989143#3 -37280969#0 -37280969#1 -37280969#2 -38349617#2 -38349617#1 -38349617#0 -278513971#0 -278513971#1 -278513971#2 -278513971#3 153191826#0 161652311#5 161652311#6 161652311#7 161652311#8 161652311#9 -24998362#0 -292630184#1 -4520029#0 4520029#1"/>
    </person>
    <person id="80" type="pedestrian" depart="64.00">
        <walk edges="346311435 346311429 346311427#0 161652311#9 -24998362#1 -24998362#2"/>
    </person>
    <person id="81" type="pedestrian" depart="64.80">
        <walk edges="450396594 346311440 97594014#3 97594013#1 97594013#2 -97594013#2"/>
    </person>
    <person id="82" type="pedestrian" depart="65.60">
        <walk edges="-272446853#0 161652311#4 153191826#1 450402225#2 450402225#1 153191825#0 153191822#1 97594013#1"/>
    </person>
    <person id="83" type="pedestrian" depart="66.40">
        <walk edges="161766614#3 161766614#2 161766614#1 38759699#0 -38349617#2 -38349617#1 -38349617#0 -278513971#0 -278513971#1 -272446858#1 161652311#3"/>
    </person>
    <person id="84" type="pedestrian" depart="67.20">
        <walk edges="-4520029#5 423191019#0 423191015#1 423191015#0"/>
    </person>
    <person id="86" type="pedestrian" depart="68.80">
        <walk edges="-24998362#2 -24998362#1 161652311#9 161652311#8 161652311#7 161652311#6 161652311#5 161652311#4 161652311#3 161652311#2 161652311#1 423144839 423144840 423144842 421561977#1"/>
    </person>
    <person id="87" type="pedestrian" depart="69.60">
        <walk edges="423153586"/>
    </person>
    <person id="88" type="pedestrian" depart="70.40">
        <walk edges="-24998362#9 -24998362#8 -24998362#7 -24998362#6 -24998362#5 -24998362#4 -24998362#3 -24998362#2 -24998362#1 161652311#9 161652311#8 161652311#7 161652311#6 161652311#5 153191826#0 -278513971#3 -278513971#2 -278513971#1 -278513971#0 -38349617#0 -38349617#1 -38349617#2 38759699#0 161766614#1 161766614#2 161766614#3 392096582"/>
    </person>
    <person id="89" type="pedestrian" depart="71.20">
        <walk edges="-24998184 -24998362#2 -24998362#1 -24998362#0 -4520030#3 -4520030#2 -4520030#1 35835807"/>
    </person>
    <person id="90" type="pedestrian" depart="72.00">
        <walk edges="450402225#3 153191823#1 161652311#1 161652311#0"/>
    </person>
    <person id="91" type="pedestrian" depart="72.80">
        <walk edges="-163989143#0 -163989143#1 -163989143#2 -163989143#3 -37280969#0 -37280969#1 -37280969#2 -38349617#2 -38349617#1 -38349617#0 -278513971#0 -278513971#1 -278513971#2 -278513971#3 153191826#0 161652311#5 161652311#6 161652311#7 161652311#8 161652311#9 -24998362#1 -24998362#2 -24998362#3 -24998362#4 -24998362#5 -24998362#6 -24998362#7"/>
    </person>
    <person id="92" type="pedestrian" depart="73.60">
        <walk edges="38759699#4 38759699#3 38759699#2 38759699#1 38759699#0 -37280969#2 -37280969#1"/>
    </person>
    <person id="93" type="pedestrian" depart="74.40">
        <walk edges="346311428 346311438 161652311#5 153191826#1"/>
    </person>
    <person id="94" type="pedestrian" depart="75.20">
        <walk edges="-429102599 -4060426#1 -163989143#0 -163989143#1 -163989143#2 -163989143#3 37280968#0 37280968#1 37280968#2"/>
    </person>
    <person id="95" type="pedestrian" depart="76.00">
        <walk edges="450396602#2 346311427#3 -97594014#0 -24998362#6 -24998362#5 -24998362#4 -24998362#3 -24998362#2 -24998362#1 -24998362#0 -4520030#3 -4520030#2 -4520030#1 35835807"/>
    </person>
    <person id="96" type="pedestrian" depart="76.80">
        <walk edges="392096582 161766614#3 161766614#2 161766614#1 38759699#0 -37280969#2 -37280969#1 -37280969#0 -163989143#3 163989143#2"/>
    </person>
    <person id="97" type="pedestrian" depart="77.60">
        <walk edges="421561992 421561971 421561977#2 421561977#1 423144842 423144840 423144839 161652311#1 161652311#2 161652311#3 161652311#4 161652311#5 161652311#6 161652311#7 161652311#8 161652311#9 -24998362#1"/>
    </person>
    <person id="98" type="pedestrian" depart="78.40">
        <walk edges="-38349617#2 -38349617#1 -38349617#0 -278513971#0 -278513971#1 -278513971#2 -278513971#3 153191826#0 161652311#5 161652311#6 161652311#7 -37693892#0 -278513971#4"/>
    </person>
    <person id="99" type="pedestrian" depart="79.20">
        <walk edges="24998362#6 97594014#0 97594014#1 97594014#2 97594014#3 97594013#1 450367725"/>
    </person>
    <person id="100" type="pedestrian" depart="80.00">
        <walk edges="346311427#4 346311427#3 -97594014#0 -24998362#6 -303809481 -423191014 423191015#1 423191019#0 -4520029#4 -4520029#3 -423191018"/>
    </person>
    <person id="101" type="pedestrian" depart="80.80">
        <walk edges="161652311#3 161652311#4 161652311#5 161652311#6 161652311#7 161652311#8 161652311#9 -24998362#0 292630184#0"/>
    </person>
    <person id="102" type="pedestrian" depart="81.60">
        <walk edges="161652311#3 161652311#2 153191823#2 -278513971#0 38349617#0"/>
    </person>
    <person id="103" type="pedestrian" depart="82.40">
        <walk edges="450402225#1 153191825#0 153191822#1 -97594013#0 97594014#2"/>
    </person>
    <person id="104" type="pedestrian" depart="83.20">
        <walk edges="-4520030#2 -4520030#3 -24998362#0 161652311#9 161652311#8 161652311#7 161652311#6 161652311#5 161652311#4 161652311#3 161652311#2 -153191823#1"/>
    </person>
    <person id="105" type="pedestrian" depart="84.00">
        <walk edges="-4673735#2 -4673735#1 -4673735#0 37280968#2 37280968#1 81270236#1 81270236#2 81270236#3 81270236#4 313576543#3 -38349617#2 -38349617#1 -38349617#0 -278513971#0 -278513971#1 -278513971#2 -278513971#3 278513971#4"/>
    </person>
    <person id="106" type="pedestrian" depart="84.80">
        <walk edges="-24998362#8 -433685522"/>
    </person>
    <person id="107" type="pedestrian" depart="85.60">
        <walk edges="-278513971#5 -292630184#0 -24998362#0 161652311#9 161652311#8 161652311#7 161652311#6 161652311#5 153191826#0 -278513971#3 -278513971#2 -278513971#1 -278513971#0 -38349617#0 -38349617#1 -38349617#2 38759699#0 161766614#1 161766614#2 161766614#3 161766614#4 313576542#1"/>
    </person>
    <person id="108" type="pedestrian" depart="86.40">
        <walk edges="-37280969#0 -37280969#1 -37280969#2 38759699#0 38759699#1 38759699#2 38759699#3 -433685596#1 -433685596#0"/>
    </person>
    <person id="109" type="pedestrian" depart="87.20">
        <walk edges="346311429 346311427#0 161652311#8 161652311#7 161652311#6 161652311#5 153191826#0 278513971#4"/>
    </person>
    <person id="110" type="pedestrian" depart="88.00">
        <walk edges="-24998362#2 -24998362#1 161652311#9 161652311#8 -37693892#0"/>
    </person>
    <person id="111" type="pedestrian" depart="88.80">
        <walk edges="303809478#0 -423191014 423191015#0 -24998362#4 -24998362#3 -24998362#2 -24998362#1 161652311#9 161652311#8 161652311#7 161652311#6 161652311#5 153191826#0 -278513971#3 -278513971#2 -278513971#1 -278513971#0 38349617#0"/>
    </person>
    <person id="112" type="pedestrian" depart="89.60">
        <walk edges="-274158312 -4520029#4 423191019#0 423191015#1 423191015#0 24998362#5"/>
    </person>
    <person id="113" type="pedestrian" depart="90.40">
        <walk edges="161766613#1 161766613#0 -4520030#2 -4520030#1 35835807"/>
    </person>
    <person id="114" type="pedestrian" depart="91.20">
        <walk edges="-423205022 -4673735#2 -4673735#1 -4673735#0 37280968#2 37280968#1 81270236#1 81270236#2 81270236#3"/>
    </person>
    <person id="115" type="pedestrian" depart="92.00">
        <walk edges="161766614#0 38759699#0 313576543#3 81270236#4 81270236#3 81270236#2 81270236#1 37280968#1 37280968#2"/>
    </person>
    <person id="116" type="pedestrian" depart="92.80">
        <walk edges="303588543#2 303588543#1 303809479 -24998362#2 -24998362#3"/>
    </person>
    <person id="117" type="pedestrian" depart="93.60">