[General]
network = Scenario
sim-time-limit = 60s
debug-on-errors = true
cmdenv-express-mode = true
image-path = ../../../../images

# VeinsInetManager
*.manager.updateInterval = 0.1s
*.manager.host = "localhost"
*.manager.port = 9999
*.manager.autoShutdown = true
*.manager.launchConfig = xmldoc("hochschule_muenchen.launchd.xml")
# there is no vehicle named vtype in this scenario. just here as an example of how to do it when you have vehicles and pedestrians
*.manager.moduleType = "vtype=org.car2x.veins.subprojects.veins_inet.VeinsInetCar pedestrian=org.car2x.veins.subprojects.veins_inet.VeinsInetPerson"
*.manager.moduleName = "vtype=carNode pedestrian=personNode"
*.manager.moduleDisplayString = "vtype='i=veins/node/car;is=vs' pedestrian='i=veins/node/pedestrian;is=vs'"

# Ieee80211Interface
*.*.wlan[0].opMode = "a"
*.*.wlan[0].radio.bandName = "5.9 GHz"
*.*.wlan[0].radio.channelNumber = 3
*.*.wlan[0].radio.transmitter.power = 20mW
*.*.wlan[0].radio.bandwidth = 10 MHz

# HostAutoConfigurator
*.*.ifConfig.interfaces = "wlan0"
*.*.ifConfig.mcastGroups = "224.0.0.1"

# VeinsInetMobility
*.*.mobility.typename = "VeinsInetMobility"

# no app for persons
*.personNode[*].numApps = 0


**.vector-recording = true
