[General]
ned-path = ../../../src;../..
user-interface = Cmdenv
network = sim
sim-time-limit = 10s

# cmdenv-runs-to-execute = 1
cmdenv-event-banners = false
cmdenv-module-messages = true 

output-scalar-precision = 6
output-vector-precision = 6

# by default, just record the primary time series
sim.host[*].batteryStats.capacity.vector-recording = true
sim.host[*].batteryStats.*.vector-recording = false


##############################################################################
#       Parameters for the entire simulation                                 #
##############################################################################
sim.playgroundSizeX = 200
sim.playgroundSizeY = 100
sim.numHosts = 1
**.debug = false
**.coreDebug = false

##############################################################################
#       Parameters for the Host                                              #
##############################################################################
sim.host[*].color = "white"
sim.host[*].appendDisplay = "b=20,20,oval;o=blue,black,2"
sim.host[*].blackboard.coreDebug = 0
sim.host[*].blackboard.debug = 0

# battery parameters
# 
sim.host[*].battery.debug = 0 
sim.host[*].battery.resolution = 0.050s
sim.host[*].battery.voltage = 3.0V
sim.host[*].battery.nominal = 1.0mAh
sim.host[*].battery.capacity = 1.0mAh

# publish to Stats every 10% change  every .1s (subject to resolution)
sim.host[*].battery.publishDelta = 0.1
sim.host[*].battery.publishTime = 0.100s

# firstDevice is a simple DutyCycle device (one account)
# only discrete energy
sim.host[*].firstDevice.debug = 0
sim.host[*].firstDevice.dutyCycle = 0.27
sim.host[*].firstDevice.period = 1.0s
sim.host[*].firstDevice.current = 1000
sim.host[*].firstDevice.wakeup = 270

# secondDevice is the two phase DutyCycle device
# draw 0.5A for 200ms, off 300ms, draw 1A for 400ms, off 100ms, wakeup 60ms
sim.host[*].secondDevice.debug = 0
sim.host[*].secondDevice.period = 1.0s
sim.host[*].secondDevice.dutyCycle0 = 0.2
sim.host[*].secondDevice.current0 = 500
sim.host[*].secondDevice.gap = 0.3
sim.host[*].secondDevice.dutyCycle1 = 0.4
sim.host[*].secondDevice.current1 = 1000
sim.host[*].secondDevice.wakeup = 60.0

# thirdDevice is another simple DutyCycle device (energy only)
sim.host[*].thirdDevice.debug = 0
sim.host[*].thirdDevice.dutyCycle = 1.0
sim.host[*].thirdDevice.period = 1.0s
sim.host[*].thirdDevice.current = 0
sim.host[*].thirdDevice.wakeup = 540

[Config One]
sim.host[*].batteryStats.detail = true	
sim.host[*].batteryStats.timeSeries = true	
output-vector-file = omnetpp_1.vec
