<?xml version="1.0" encoding="UTF-8"?>

<!--
Luxembourg SUMO Traffic (LuST) Scenario
This project is licensed under the terms of the MIT license.
Author: Lara CODECA [codeca@gmail.com]
-->

<routes xmlns:xsi="http://www.w3.org/2001/XMLSchema-instance" xsi:noNamespaceSchemaLocation="http://sumo.dlr.de/xsd/routes_file.xsd">
    <vehicle id="CNA____NBNA_0" type="bus" depart="2.00" departLane="best" departPos="0.00" arrivalPos="-1.00" color="green">
        <route edges="-32278#1 -32278#2 -32278#3 -30738 -31778#3 -31778#4 -31708#0 -31708#1 -32674#4 -32674#5 -32674#6 -32674#7 -32674#8 -32674#9 --31648#5 --31648#4 --31648#3 --31648#2 --31648#1 --31648#0 -30528#5 -30528#6 --32924#4 --32924#3 --32924#2 --32924#1 --32924#0"/>
        <stop busStop="607" duration="20.00"/>
        <stop busStop="58" duration="20.00"/>
        <stop busStop="557" duration="20.00"/>
        <stop busStop="560" duration="20.00"/>
        <stop busStop="217" duration="20.00"/>
        <stop busStop="239" duration="20.00"/>
    </vehicle>
    <vehicle id="CNA____NBNA_1" type="bus" depart="2.00" departLane="best" departPos="0.00" arrivalPos="-1.00" color="green">
        <route edges="-32924#0 -32924#1 -32924#2 -32924#3 -32924#4 --30528#6 --30528#5 -31648#0 -31648#1 -31648#2 -31648#3 -31648#4 -31648#5 --32674#9 --32674#8 --32674#7 --32674#6 --32674#5 --32674#4 --31708#1 --31708#0 -31778#1 -31778#2 --30536 --32278#3 --32278#2 --32278#1"/>
        <stop busStop="240" duration="20.00"/>
        <stop busStop="218" duration="20.00"/>
        <stop busStop="561" duration="20.00"/>
        <stop busStop="556" duration="20.00"/>
        <stop busStop="57" duration="20.00"/>
        <stop busStop="606" duration="20.00"/>
    </vehicle>
    <vehicle id="AVL---_CN_1_0" type="bus" depart="21.00" departLane="best" departPos="0.00" arrivalPos="-1.00" color="green">
        <route edges="--31272#8 --31272#7 -30892#17 -31320#1 -31320#2 --31272#4 --31272#3 --31272#2 --31272#1 --31272#0 --30528#20 --30528#19 --30528#18 --30528#17 --30528#16 --30528#15 --30528#14 --30528#13 --30528#12 --30528#11 --30528#10 --30528#9 --30528#8 --30528#7 --30528#6 --30528#5 -31648#0 -31648#1 -31648#2 --32672 -31068#0 -31068#1 -32574 -30338 --32652#9 --30796 -31208#1 --31056#0 -31780 --31068#1 --31068#0 -32672 -31648#3 -31648#4 -31648#5 --32674#9 --32674#8 --32674#7 --32674#6 --32674#5 --32674#4 --32674#3 --32674#2 --31134#1 --31134#0 --30856#15 --30856#14 --30856#13 --30856#12 --30856#11 --30856#10 --30856#9 --30856#8 --30856#7 --30856#6 --30856#5 --30856#4 --30856#3 --30856#2 --30856#1 --30856#0 -32674#7 -32674#8 -32674#9 --31492#2 -30528#0 -30528#1 -30528#2 -30528#3 -30812 --31648#1 --31648#0 -30528#5 -30528#6 --32924#4 --32924#3 --32924#2 --32924#1 --32924#0 --32410#3 --32410#2 --32410#1 --32410#0 -30528#16"/>
        <stop busStop="633" duration="20.00"/>
        <stop busStop="523" duration="20.00"/>
        <stop busStop="50" duration="20.00"/>
        <stop busStop="371" duration="20.00"/>
        <stop busStop="457" duration="20.00"/>
        <stop busStop="135" duration="20.00"/>
        <stop busStop="259" duration="20.00"/>
        <stop busStop="218" duration="20.00"/>
        <stop busStop="613" duration="20.00"/>
        <stop busStop="620" duration="20.00"/>
        <stop busStop="79" duration="20.00"/>
        <stop busStop="124" duration="20.00"/>
        <stop busStop="561" duration="20.00"/>
        <stop busStop="556" duration="20.00"/>
        <stop busStop="334" duration="20.00"/>
        <stop busStop="96" duration="20.00"/>
        <stop busStop="192" duration="20.00"/>
        <stop busStop="211" duration="20.00"/>
        <stop busStop="57" duration="20.00"/>
        <stop busStop="410" duration="20.00"/>
        <stop busStop="73" duration="20.00"/>
        <stop busStop="422" duration="20.00"/>
        <stop busStop="155" duration="20.00"/>
        <stop busStop="487" duration="20.00"/>
        <stop busStop="300" duration="20.00"/>
        <stop busStop="354" duration="20.00"/>
        <stop busStop="242" duration="20.00"/>
        <stop busStop="47" duration="20.00"/>
        <stop busStop="515" duration="20.00"/>
        <stop busStop="605" duration="20.00"/>
        <stop busStop="254" duration="20.00"/>
        <stop busStop="462" duration="20.00"/>
        <stop busStop="563" duration="20.00"/>
        <stop busStop="335" duration="20.00"/>
        <stop busStop="557" duration="20.00"/>
        <stop busStop="217" duration="20.00"/>
        <stop busStop="239" duration="20.00"/>
        <stop busStop="187" duration="20.00"/>
        <stop busStop="81" duration="20.00"/>
    </vehicle>
    <vehicle id="AVL---_CN_1_1" type="bus" depart="21.00" departLane="best" departPos="0.00" arrivalPos="-1.00" color="green">
        <route edges="--30528#16 -32410#0 -32410#1 -32410#2 -32410#3 -32924#0 -32924#1 -32924#2 -32924#3 -32924#4 --30528#6 --30528#5 -31648#0 -31648#1 --30812 --30528#3 --30528#2 --30528#1 --30528#0 -31492#2 --32674#9 --32674#8 --32674#7 -30856#0 -30856#1 -30856#2 -30856#3 -30856#4 -30856#5 -30856#6 -30856#7 -30856#8 -30856#9 -30856#10 -30856#11 -30856#12 -30856#13 -30856#14 -30856#15 -31134#0 -31134#1 -32674#2 -32674#3 -32674#4 -32674#5 -32674#6 -32674#7 -32674#8 -32674#9 --31648#5 --31648#4 --31648#3 --32672 -31068#0 -31068#1 -32574 -30338 -31056#0 --31208#1 -30796 -32652#9 -31780 --31068#1 --31068#0 -32672 --31648#2 --31648#1 --31648#0 -30528#5 -30528#6 -30528#7 -30528#8 -30528#9 -30528#10 -30528#11 -30528#12 -30528#13 -30528#14 -30528#15 -30528#16 -30528#17 -30528#18 -30528#19 -30528#20 -31272#0 -31272#1 -31272#2 -31272#3 -31272#4 -31272#5 -31272#6 -31272#7 -31272#8"/>
        <stop busStop="80" duration="20.00"/>
        <stop busStop="186" duration="20.00"/>
        <stop busStop="240" duration="20.00"/>
        <stop busStop="218" duration="20.00"/>
        <stop busStop="556" duration="20.00"/>
        <stop busStop="334" duration="20.00"/>
        <stop busStop="562" duration="20.00"/>
        <stop busStop="463" duration="20.00"/>
        <stop busStop="255" duration="20.00"/>
        <stop busStop="604" duration="20.00"/>
        <stop busStop="514" duration="20.00"/>
        <stop busStop="46" duration="20.00"/>
        <stop busStop="241" duration="20.00"/>
        <stop busStop="355" duration="20.00"/>
        <stop busStop="299" duration="20.00"/>
        <stop busStop="486" duration="20.00"/>
        <stop busStop="156" duration="20.00"/>
        <stop busStop="423" duration="20.00"/>
        <stop busStop="74" duration="20.00"/>
        <stop busStop="411" duration="20.00"/>
        <stop busStop="58" duration="20.00"/>
        <stop busStop="212" duration="20.00"/>
        <stop busStop="193" duration="20.00"/>
        <stop busStop="97" duration="20.00"/>
        <stop busStop="335" duration="20.00"/>
        <stop busStop="557" duration="20.00"/>
        <stop busStop="560" duration="20.00"/>
        <stop busStop="125" duration="20.00"/>
        <stop busStop="621" duration="20.00"/>
        <stop busStop="612" duration="20.00"/>
        <stop busStop="217" duration="20.00"/>
        <stop busStop="258" duration="20.00"/>
        <stop busStop="136" duration="20.00"/>
        <stop busStop="456" duration="20.00"/>
        <stop busStop="370" duration="20.00"/>
        <stop busStop="522" duration="20.00"/>
        <stop busStop="632" duration="20.00"/>
    </vehicle>
    <vehicle id="AVL---_CN_4_0" type="bus" depart="36.00" departLane="best" departPos="0.00" arrivalPos="-1.00" color="green">
        <route edges="-31648#1 --30812 --30528#3 --30528#2 -31068#0 -31068#1 -30620 --32278#6 --32278#5 --32278#4 --32278#3 --32278#2 --32278#1 --32278#0 -32770#7 -32770#1 -32770#3 -32770#5 --32340#7 --32340#5 --32340#4 --32340#3 --32340#2 --32340#1 --32340#0 -32524#2 -31070#0 -31070#1 -31070#2 -31070#3 -31070#4 -31070#5 -31070#6 -31070#7 -30444#0 -30444#1 -30444#2 -31252 -30874#0 -30874#1 -30874#2 -30874#3 -30380 --30850#8 --30850#7 --30850#6 --30850#5 --30850#4 --30850#3 --30850#2 --30850#1 --30850#0 --32552#0 -30648#13 -30648#14 -30648#15 -31492#0 -31492#1 -30528#0 --32162#0 --31648#3 --31648#2 --31648#1"/>
        <stop busStop="218" duration="20.00"/>
        <stop busStop="620" duration="20.00"/>
        <stop busStop="86" duration="20.00"/>
        <stop busStop="133" duration="20.00"/>
        <stop busStop="277" duration="20.00"/>
        <stop busStop="311" duration="20.00"/>
        <stop busStop="69" duration="20.00"/>
        <stop busStop="606" duration="20.00"/>
        <stop busStop="129" duration="20.00"/>
        <stop busStop="184" duration="20.00"/>
        <stop busStop="454" duration="20.00"/>
        <stop busStop="634" duration="20.00"/>
        <stop busStop="260" duration="20.00"/>
        <stop busStop="172" duration="20.00"/>
        <stop busStop="226" duration="20.00"/>
        <stop busStop="498" duration="20.00"/>
        <stop busStop="33" duration="20.00"/>
        <stop busStop="648" duration="20.00"/>
        <stop busStop="444" duration="20.00"/>
        <stop busStop="573" duration="20.00"/>
        <stop busStop="228" duration="20.00"/>
        <stop busStop="327" duration="20.00"/>
        <stop busStop="560" duration="20.00"/>
        <stop busStop="217" duration="20.00"/>
    </vehicle>
    <vehicle id="AVL---_CN_4_1" type="bus" depart="36.00" departLane="best" departPos="0.00" arrivalPos="-1.00" color="green">
        <route edges="-31648#1 -31648#2 -31648#3 -32162#0 --30528#0 --31492#1 --31492#0 --30648#15 --30648#14 --30648#13 -32552#0 -30850#0 -30850#1 -30850#2 -30850#3 -30850#4 -30850#5 -30850#6 -30850#7 -30850#8 -30850#9 -31424 --30444#2 --30444#1 --30444#0 --31070#7 --31070#6 --31070#5 --31070#4 --31070#3 --31070#2 --31070#1 --31070#0 -32524#0 -32524#1 -32340#0 -32340#1 -32340#2 -32340#3 -32340#4 -32340#5 -32340#7 -32770#6 -32278#0 -32278#1 -32278#2 -32278#3 -32278#4 -32278#5 -32278#6 --30620 --31068#1 --31068#0 -30528#2 -30528#3 -30812 --31648#1"/>
        <stop busStop="218" duration="20.00"/>
        <stop busStop="561" duration="20.00"/>
        <stop busStop="328" duration="20.00"/>
        <stop busStop="227" duration="20.00"/>
        <stop busStop="572" duration="20.00"/>
        <stop busStop="445" duration="20.00"/>
        <stop busStop="649" duration="20.00"/>
        <stop busStop="34" duration="20.00"/>
        <stop busStop="499" duration="20.00"/>
        <stop busStop="225" duration="20.00"/>
        <stop busStop="171" duration="20.00"/>
        <stop busStop="261" duration="20.00"/>
        <stop busStop="635" duration="20.00"/>
        <stop busStop="455" duration="20.00"/>
        <stop busStop="185" duration="20.00"/>
        <stop busStop="128" duration="20.00"/>
        <stop busStop="607" duration="20.00"/>
        <stop busStop="70" duration="20.00"/>
        <stop busStop="312" duration="20.00"/>
        <stop busStop="278" duration="20.00"/>
        <stop busStop="134" duration="20.00"/>
        <stop busStop="87" duration="20.00"/>
        <stop busStop="621" duration="20.00"/>
        <stop busStop="217" duration="20.00"/>
    </vehicle>
    <vehicle id="NBSKMS_Nightbus_0" type="bus" depart="39.00" departLane="best" departPos="0.00" arrivalPos="-1.00" color="green">
        <route edges="-32278#1 -32278#2 -32278#3 -32278#4 -32278#5"/>
        <stop busStop="607" duration="20.00"/>
        <stop busStop="312" duration="20.00"/>
        <stop busStop="278" duration="20.00"/>
    </vehicle>
    <vehicle id="NBSKMS_Nightbus_1" type="bus" depart="39.00" departLane="best" departPos="0.00" arrivalPos="-1.00" color="green">
        <route edges="--32278#5 --32278#4 --32278#3 --32278#2 --32278#1"/>
        <stop busStop="277" duration="20.00"/>
        <stop busStop="311" duration="20.00"/>
        <stop busStop="606" duration="20.00"/>
    </vehicle>
    <vehicle id="AVL---_CN_3_0" type="bus" depart="53.00" departLane="best" departPos="0.00" arrivalPos="-1.00" color="green">
        <route edges="-31340#2 -31340#3 -31340#4 --31066#0 -32914#1 --30348#5 --30348#4 --30348#3 --30348#2 --30348#1 --30348#0 -30892#24 -30892#25 -32558 -32730#0 --31772#1 --31772#0 -31966#5 -31966#6 -31966#7 -31966#8 -31966#9 -31966#10 -31966#11 -31966#12 -31966#13 --31066#8 --30892#21 --30892#20 --30892#19 --30892#18 --30892#17 --30892#16 --30892#15 --30892#14 --30892#13 --30892#12 --30892#11 --30892#10 --30892#9 --30892#8 --30892#7 --30892#6 -32750#10 -32750#11 -32750#12 --30528#4 -30812 --31648#1 --31648#0 -30528#5 -30528#6 -30528#7 -30528#8 -30528#9 -30528#10 -30528#11 -30528#12 -30528#13 -32850 -31890 --32964#11 --32964#10 --32964#9 --32964#8 --32964#7 --32964#6 --32964#5 --32964#4 --32964#3 --32964#2 --32964#1 --32964#0 --31818#20 --31818#19 --31818#18 --31818#17 --31818#16 --31818#15 --32638#11 --32638#10 --32638#9 --32638#8 --32638#7 --32638#6 --32638#5 --32638#4 --32638#3 --32638#2 --32638#1 --32638#0"/>
        <stop busStop="344" duration="20.00"/>
        <stop busStop="587" duration="20.00"/>
        <stop busStop="451" duration="20.00"/>
        <stop busStop="414" duration="20.00"/>
        <stop busStop="324" duration="20.00"/>
        <stop busStop="441" duration="20.00"/>
        <stop busStop="396" duration="20.00"/>
        <stop busStop="243" duration="20.00"/>
        <stop busStop="71" duration="20.00"/>
        <stop busStop="216" duration="20.00"/>
        <stop busStop="644" duration="20.00"/>
        <stop busStop="642" duration="20.00"/>
        <stop busStop="217" duration="20.00"/>
        <stop busStop="258" duration="20.00"/>
        <stop busStop="136" duration="20.00"/>
        <stop busStop="409" duration="20.00"/>
        <stop busStop="148" duration="20.00"/>
        <stop busStop="591" duration="20.00"/>
        <stop busStop="150" duration="20.00"/>
        <stop busStop="88" duration="20.00"/>
        <stop busStop="343" duration="20.00"/>
        <stop busStop="501" duration="20.00"/>
        <stop busStop="472" duration="20.00"/>
        <stop busStop="245" duration="20.00"/>
        <stop busStop="116" duration="20.00"/>
    </vehicle>
    <vehicle id="AVL---_CN_3_1" type="bus" depart="53.00" departLane="best" departPos="0.00" arrivalPos="-1.00" color="green">
        <route edges="-32638#0 -32638#1 -32638#2 -32638#3 -32638#4 -32638#5 -32638#6 -32638#7 -32638#8 -32638#9 -32638#10 -32638#11 -31818#15 -31818#16 -31818#17 -31818#18 -31818#19 -31818#20 -32964#0 -32964#1 -32964#2 -32964#3 -32964#4 -32964#5 -32964#6 -32964#7 -32964#8 -32964#9 -32964#10 -32964#11 --31890 --32410#0 --30528#15 --30528#14 --30528#13 --30528#12 --30528#11 --30528#10 --30528#9 --30528#8 --30528#7 --30528#6 --30528#5 -31648#0 -31648#1 --30812 -30528#4 --32750#12 --32750#11 --32750#10 -30892#6 -30892#7 -30892#8 -30892#9 -30892#10 -30892#11 -30892#12 -30892#13 -30892#14 -30892#15 -30892#16 -30892#17 -30892#18 -30892#19 -30892#20 -30892#21 -31066#8 --31966#13 --31966#12 --31966#11 --31966#10 --31966#9 --31966#8 --31966#7 --31966#6 --31966#5 -31772#0 -31772#1 --32730#0 --32558 --30892#25 --30892#24 -30348#0 -30348#1 -30348#2 -30348#3 -30348#4 -30348#5 -32914#2 -32914#3 -31066#0 --31340#4 --31340#3 --31340#2"/>
        <stop busStop="117" duration="20.00"/>
        <stop busStop="246" duration="20.00"/>
        <stop busStop="473" duration="20.00"/>
        <stop busStop="500" duration="20.00"/>
        <stop busStop="342" duration="20.00"/>
        <stop busStop="89" duration="20.00"/>
        <stop busStop="149" duration="20.00"/>
        <stop busStop="590" duration="20.00"/>
        <stop busStop="147" duration="20.00"/>
        <stop busStop="408" duration="20.00"/>
        <stop busStop="135" duration="20.00"/>
        <stop busStop="259" duration="20.00"/>
        <stop busStop="218" duration="20.00"/>
        <stop busStop="641" duration="20.00"/>
        <stop busStop="643" duration="20.00"/>
        <stop busStop="215" duration="20.00"/>
        <stop busStop="72" duration="20.00"/>
        <stop busStop="244" duration="20.00"/>
        <stop busStop="397" duration="20.00"/>
        <stop busStop="440" duration="20.00"/>
        <stop busStop="323" duration="20.00"/>
        <stop busStop="415" duration="20.00"/>
        <stop busStop="450" duration="20.00"/>
        <stop busStop="586" duration="20.00"/>
        <stop busStop="345" duration="20.00"/>
    </vehicle>
    <vehicle id="AVL---_CN_2_0" type="bus" depart="57.00" departLane="best" departPos="0.00" arrivalPos="-1.00" color="green">
        <route edges="-31496#9 -31496#10 -31496#11 -31496#12 -31496#13 -31496#14 -32750#0 -32750#1 -32750#2 -32750#3 -32750#4 -32750#5 -32750#6 -32750#7 -32750#8 -32750#9 -32750#10 -32750#11 -32750#12 -31648#0 -31648#1 -31648#2 --32672 -31068#0 -31068#1 -32574 -31330 -32500 -32868 -30710#0 -30710#1 -30710#2 --32002 -31274#0 -31274#1 -30928 --30646#8 --30646#7 --30646#6 --30646#5 --30646#4 --30646#3 --30646#2 --30646#1 -31056#2 -31056#3 -30962#1 -30962#2 -30256#0 --31812 -30582#0 -30582#1 --31152#1 --31152#0 -32160#1 -32160#2 -32160#3 --31992#5 --31992#4 --31992#3 --31992#2 --31992#1"/>
        <stop busStop="54" duration="20.00"/>
        <stop busStop="385" duration="20.00"/>
        <stop busStop="571" duration="20.00"/>
        <stop busStop="332" duration="20.00"/>
        <stop busStop="320" duration="20.00"/>
        <stop busStop="288" duration="20.00"/>
        <stop busStop="550" duration="20.00"/>
        <stop busStop="218" duration="20.00"/>
        <stop busStop="613" duration="20.00"/>
        <stop busStop="620" duration="20.00"/>
        <stop busStop="132" duration="20.00"/>
        <stop busStop="263" duration="20.00"/>
        <stop busStop="508" duration="20.00"/>
        <stop busStop="95" duration="20.00"/>
        <stop busStop="521" duration="20.00"/>
        <stop busStop="315" duration="20.00"/>
        <stop busStop="51" duration="20.00"/>
        <stop busStop="518" duration="20.00"/>
        <stop busStop="640" duration="20.00"/>
        <stop busStop="122" duration="20.00"/>
        <stop busStop="120" duration="20.00"/>
        <stop busStop="130" duration="20.00"/>
        <stop busStop="82" duration="20.00"/>
        <stop busStop="398" duration="20.00"/>
    </vehicle>
    <vehicle id="AVL---_CN_2_1" type="bus" depart="57.00" departLane="best" departPos="0.00" arrivalPos="-1.00" color="green">
        <route edges="-31992#1 -31992#2 -31992#3 -31992#4 -31992#5 --32160#3 --32160#2 --32160#1 -31152#0 -31152#1 -30582#2 -31812 --30256#0 -30724#0 -32486#0 -32486#1 --31056#2 -30646#1 -30646#2 -30646#3 -30646#4 -30646#5 -30646#6 -30646#7 -30646#8 --30928 --31274#1 --31274#0 -32002 -31478#0 -31478#1 --30860#5 --30860#4 --30860#3 --30860#2 --31752 --31330 -30338 -31780 --31068#1 --31068#0 -32672 --31648#2 --31648#1 --31648#0 --32750#12 --32750#11 --32750#10 --32750#9 --32750#8 --32750#7 --32750#6 --32750#5 --32750#4 --32750#3 --32750#2 --32750#1 --32750#0 --31496#14 --31496#13 --31496#12 --31496#11 --31496#10 --31496#9"/>
        <stop busStop="399" duration="20.00"/>
        <stop busStop="83" duration="20.00"/>
        <stop busStop="131" duration="20.00"/>
        <stop busStop="121" duration="20.00"/>
        <stop busStop="123" duration="20.00"/>
        <stop busStop="639" duration="20.00"/>
        <stop busStop="519" duration="20.00"/>
        <stop busStop="52" duration="20.00"/>
        <stop busStop="316" duration="20.00"/>
        <stop busStop="520" duration="20.00"/>
        <stop busStop="94" duration="20.00"/>
        <stop busStop="262" duration="20.00"/>
        <stop busStop="621" duration="20.00"/>
        <stop busStop="612" duration="20.00"/>
        <stop busStop="217" duration="20.00"/>
        <stop busStop="551" duration="20.00"/>
        <stop busStop="287" duration="20.00"/>
        <stop busStop="319" duration="20.00"/>
        <stop busStop="331" duration="20.00"/>
        <stop busStop="570" duration="20.00"/>
        <stop busStop="384" duration="20.00"/>
        <stop busStop="53" duration="20.00"/>
    </vehicle>
    <vehicle id="CNA____NBNA_2" type="bus" depart="1802.00" departLane="best" departPos="0.00" arrivalPos="-1.00" color="green">
        <route edges="-32278#1 -32278#2 -32278#3 -30738 -31778#3 -31778#4 -31708#0 -31708#1 -32674#4 -32674#5 -32674#6 -32674#7 -32674#8 -32674#9 --31648#5 --31648#4 --31648#3 --31648#2 --31648#1 --31648#0 -30528#5 -30528#6 --32924#4 --32924#3 --32924#2 --32924#1 --32924#0"/>
        <stop busStop="607" duration="20.00"/>
        <stop busStop="58" duration="20.00"/>
        <stop busStop="557" duration="20.00"/>
        <stop busStop="560" duration="20.00"/>
        <stop busStop="217" duration="20.00"/>
        <stop busStop="239" duration="20.00"/>
    </vehicle>
    <vehicle id="CNA____NBNA_3" type="bus" depart="1802.00" departLane="best" departPos="0.00" arrivalPos="-1.00" color="green">
        <route edges="-32924#0 -32924#1 -32924#2 -32924#3 -32924#4 --30528#6 --30528#5 -31648#0 -31648#1 -31648#2 -31648#3 -31648#4 -31648#5 --32674#9 --32674#8 --32674#7 --32674#6 --32674#5 --32674#4 --31708#1 --31708#0 -31778#1 -31778#2 --30536 --32278#3 --32278#2 --32278#1"/>
        <stop busStop="240" duration="20.00"/>
        <stop busStop="218" duration="20.00"/>
        <stop busStop="561" duration="20.00"/>
        <stop busStop="556" duration="20.00"/>
        <stop busStop="57" duration="20.00"/>
        <stop busStop="606" duration="20.00"/>
    </vehicle>
    <vehicle id="AVL---_CN_1_2" type="bus" depart="1821.00" departLane="best" departPos="0.00" arrivalPos="-1.00" color="green">
        <route edges="--31272#8 --31272#7 -30892#17 -31320#1 -31320#2 --31272#4 --31272#3 --31272#2 --31272#1 --31272#0 --30528#20 --30528#19 --30528#18 --30528#17 --30528#16 --30528#15 --30528#14 --30528#13 --30528#12 --30528#11 --30528#10 --30528#9 --30528#8 --30528#7 --30528#6 --30528#5 -31648#0 -31648#1 -31648#2 --32672 -31068#0 -31068#1 -32574 -30338 --32652#9 --30796 -31208#1 --31056#0 -31780 --31068#1 --31068#0 -32672 -31648#3 -31648#4 -31648#5 --32674#9 --32674#8 --32674#7 --32674#6 --32674#5 --32674#4 --32674#3 --32674#2 --31134#1 --31134#0 --30856#15 --30856#14 --30856#13 --30856#12 --30856#11 --30856#10 --30856#9 --30856#8 --30856#7 --30856#6 --30856#5 --30856#4 --30856#3 --30856#2 --30856#1 --30856#0 -32674#7 -32674#8 -32674#9 --31492#2 -30528#0 -30528#1 -30528#2 -30528#3 -30812 --31648#1 --31648#0 -30528#5 -30528#6 --32924#4 --32924#3 --32924#2 --32924#1 --32924#0 --32410#3 --32410#2 --32410#1 --32410#0 -30528#16"/>
        <stop busStop="633" duration="20.00"/>
        <stop busStop="523" duration="20.00"/>
        <stop busStop="50" duration="20.00"/>
        <stop busStop="371" duration="20.00"/>
        <stop busStop="457" duration="20.00"/>
        <stop busStop="135" duration="20.00"/>
        <stop busStop="259" duration="20.00"/>
        <stop busStop="218" duration="20.00"/>
        <stop busStop="613" duration="20.00"/>
        <stop busStop="620" duration="20.00"/>
        <stop busStop="79" duration="20.00"/>
        <stop busStop="124" duration="20.00"/>
        <stop busStop="561" duration="20.00"/>
        <stop busStop="556" duration="20.00"/>
        <stop busStop="334" duration="20.00"/>
        <stop busStop="96" duration="20.00"/>
        <stop busStop="192" duration="20.00"/>
        <stop busStop="211" duration="20.00"/>
        <stop busStop="57" duration="20.00"/>
        <stop busStop="410" duration="20.00"/>
        <stop busStop="73" duration="20.00"/>
        <stop busStop="422" duration="20.00"/>
        <stop busStop="155" duration="20.00"/>
        <stop busStop="487" duration="20.00"/>
        <stop busStop="300" duration="20.00"/>
        <stop busStop="354" duration="20.00"/>
        <stop busStop="242" duration="20.00"/>
        <stop busStop="47" duration="20.00"/>
        <stop busStop="515" duration="20.00"/>
        <stop busStop="605" duration="20.00"/>
        <stop busStop="254" duration="20.00"/>
        <stop busStop="462" duration="20.00"/>
        <stop busStop="563" duration="20.00"/>
        <stop busStop="335" duration="20.00"/>
        <stop busStop="557" duration="20.00"/>
        <stop busStop="217" duration="20.00"/>
        <stop busStop="239" duration="20.00"/>
        <stop busStop="187" duration="20.00"/>
        <stop busStop="81" duration="20.00"/>
    </vehicle>
    <vehicle id="AVL---_CN_1_3" type="bus" depart="1821.00" departLane="best" departPos="0.00" arrivalPos="-1.00" color="green">
        <route edges="--30528#16 -32410#0 -32410#1 -32410#2 -32410#3 -32924#0 -32924#1 -32924#2 -32924#3 -32924#4 --30528#6 --30528#5 -31648#0 -31648#1 --30812 --30528#3 --30528#2 --30528#1 --30528#0 -31492#2 --32674#9 --32674#8 --32674#7 -30856#0 -30856#1 -30856#2 -30856#3 -30856#4 -30856#5 -30856#6 -30856#7 -30856#8 -30856#9 -30856#10 -30856#11 -30856#12 -30856#13 -30856#14 -30856#15 -31134#0 -31134#1 -32674#2 -32674#3 -32674#4 -32674#5 -32674#6 -32674#7 -32674#8 -32674#9 --31648#5 --31648#4 --31648#3 --32672 -31068#0 -31068#1 -32574 -30338 -31056#0 --31208#1 -30796 -32652#9 -31780 --31068#1 --31068#0 -32672 --31648#2 --31648#1 --31648#0 -30528#5 -30528#6 -30528#7 -30528#8 -30528#9 -30528#10 -30528#11 -30528#12 -30528#13 -30528#14 -30528#15 -30528#16 -30528#17 -30528#18 -30528#19 -30528#20 -31272#0 -31272#1 -31272#2 -31272#3 -31272#4 -31272#5 -31272#6 -31272#7 -31272#8"/>
        <stop busStop="80" duration="20.00"/>
        <stop busStop="186" duration="20.00"/>
        <stop busStop="240" duration="20.00"/>
        <stop busStop="218" duration="20.00"/>
        <stop busStop="556" duration="20.00"/>
        <stop busStop="334" duration="20.00"/>
        <stop busStop="562" duration="20.00"/>
        <stop busStop="463" duration="20.00"/>
        <stop busStop="255" duration="20.00"/>
        <stop busStop="604" duration="20.00"/>
        <stop busStop="514" duration="20.00"/>
        <stop busStop="46" duration="20.00"/>
        <stop busStop="241" duration="20.00"/>
        <stop busStop="355" duration="20.00"/>
        <stop busStop="299" duration="20.00"/>
        <stop busStop="486" duration="20.00"/>
        <stop busStop="156" duration="20.00"/>
        <stop busStop="423" duration="20.00"/>
        <stop busStop="74" duration="20.00"/>
        <stop busStop="411" duration="20.00"/>
        <stop busStop="58" duration="20.00"/>
        <stop busStop="212" duration="20.00"/>
        <stop busStop="193" duration="20.00"/>
        <stop busStop="97" duration="20.00"/>
        <stop busStop="335" duration="20.00"/>
        <stop busStop="557" duration="20.00"/>
        <stop busStop="560" duration="20.00"/>
        <stop busStop="125" duration="20.00"/>
        <stop busStop="621" duration="20.00"/>
        <stop busStop="612" duration="20.00"/>
        <stop busStop="217" duration="20.00"/>
        <stop busStop="258" duration="20.00"/>
        <stop busStop="136" duration="20.00"/>
        <stop busStop="456" duration="20.00"/>
        <stop busStop="370" duration="20.00"/>
        <stop busStop="522" duration="20.00"/>
        <stop busStop="632" duration="20.00"/>
    </vehicle>
    <vehicle id="AVL---_CN_4_2" type="bus" depart="1836.00" departLane="best" departPos="0.00" arrivalPos="-1.00" color="green">
        <route edges="-31648#1 --30812 --30528#3 --30528#2 -31068#0 -31068#1 -30620 --32278#6 --32278#5 --32278#4 --32278#3 --32278#2 --32278#1 --32278#0 -32770#7 -32770#1 -32770#3 -32770#5 --32340#7 --32340#5 --32340#4 --32340#3 --32340#2 --32340#1 --32340#0 -32524#2 -31070#0 -31070#1 -31070#2 -31070#3 -31070#4 -31070#5 -31070#6 -31070#7 -30444#0 -30444#1 -30444#2 -31252 -30874#0 -30874#1 -30874#2 -30874#3 -30380 --30850#8 --30850#7 --30850#6 --30850#5 --30850#4 --30850#3 --30850#2 --30850#1 --30850#0 --32552#0 -30648#13 -30648#14 -30648#15 -31492#0 -31492#1 -30528#0 --32162#0 --31648#3 --31648#2 --31648#1"/>
        <stop busStop="218" duration="20.00"/>
        <stop busStop="620" duration="20.00"/>
        <stop busStop="86" duration="20.00"/>
        <stop busStop="133" duration="20.00"/>
        <stop busStop="277" duration="20.00"/>
        <stop busStop="311" duration="20.00"/>
        <stop busStop="69" duration="20.00"/>
        <stop busStop="606" duration="20.00"/>
        <stop busStop="129" duration="20.00"/>
        <stop busStop="184" duration="20.00"/>
        <stop busStop="454" duration="20.00"/>
        <stop busStop="634" duration="20.00"/>
        <stop busStop="260" duration="20.00"/>
        <stop busStop="172" duration="20.00"/>
        <stop busStop="226" duration="20.00"/>
        <stop busStop="498" duration="20.00"/>
        <stop busStop="33" duration="20.00"/>
        <stop busStop="648" duration="20.00"/>
        <stop busStop="444" duration="20.00"/>
        <stop busStop="573" duration="20.00"/>
        <stop busStop="228" duration="20.00"/>
        <stop busStop="327" duration="20.00"/>
        <stop busStop="560" duration="20.00"/>
        <stop busStop="217" duration="20.00"/>
    </vehicle>
    <vehicle id="AVL---_CN_4_3" type="bus" depart="1836.00" departLane="best" departPos="0.00" arrivalPos="-1.00" color="green">
        <route edges="-31648#1 -31648#2 -31648#3 -32162#0 --30528#0 --31492#1 --31492#0 --30648#15 --30648#14 --30648#13 -32552#0 -30850#0 -30850#1 -30850#2 -30850#3 -30850#4 -30850#5 -30850#6 -30850#7 -30850#8 -30850#9 -31424 --30444#2 --30444#1 --30444#0 --31070#7 --31070#6 --31070#5 --31070#4 --31070#3 --31070#2 --31070#1 --31070#0 -32524#0 -32524#1 -32340#0 -32340#1 -32340#2 -32340#3 -32340#4 -32340#5 -32340#7 -32770#6 -32278#0 -32278#1 -32278#2 -32278#3 -32278#4 -32278#5 -32278#6 --30620 --31068#1 --31068#0 -30528#2 -30528#3 -30812 --31648#1"/>
        <stop busStop="218" duration="20.00"/>
        <stop busStop="561" duration="20.00"/>
        <stop busStop="328" duration="20.00"/>
        <stop busStop="227" duration="20.00"/>
        <stop busStop="572" duration="20.00"/>
        <stop busStop="445" duration="20.00"/>
        <stop busStop="649" duration="20.00"/>