<!--
Luxembourg SUMO Traffic (LuST) Scenario
This project is licensed under the terms of the MIT license.
Author: Lara CODECA [codeca@gmail.com]
-->

<additional>
  <e1Detector id="0_E_-30132" lane="--31508#3_0" pos="1360.92" freq="1800" file="e1_end_output.xml"/>
  <e1Detector id="1_B_-30132" lane="--31508#2_0" pos="5" freq="1800" file="e1_begin_output.xml"/>
  <e1Detector id="2_B_-30132" lane="-31508#3_0" pos="5" freq="1800" file="e1_begin_output.xml"/>
  <e1Detector id="3_E_-30132" lane="-31508#2_0" pos="681.87" freq="1800" file="e1_end_output.xml"/>
  <e1Detector id="4_B_-30132" lane="-32878#6_0" pos="5" freq="1800" file="e1_begin_output.xml"/>
  <e1Detector id="5_B_-30132" lane="-32878#6_1" pos="5" freq="1800" file="e1_begin_output.xml"/>
  <e1Detector id="6_E_-30132" lane="--32878#6_0" pos="597.23" freq="1800" file="e1_end_output.xml"/>
  <e1Detector id="7_E_-30132" lane="--32878#6_1" pos="597.23" freq="1800" file="e1_end_output.xml"/>
  <e1Detector id="8_B_-29988" lane="-31272#5_0" pos="5" freq="1800" file="e1_begin_output.xml"/>
  <e1Detector id="9_B_-29988" lane="-31272#5_1" pos="5" freq="1800" file="e1_begin_output.xml"/>
  <e1Detector id="10_B_-29988" lane="-31272#5_2" pos="5" freq="1800" file="e1_begin_output.xml"/>
  <e1Detector id="11_E_-29988" lane="-31272#4_0" pos="167.22" freq="1800" file="e1_end_output.xml"/>
  <e1Detector id="12_E_-29988" lane="-31272#4_1" pos="167.22" freq="1800" file="e1_end_output.xml"/>
  <e1Detector id="13_E_-29988" lane="-31272#4_2" pos="167.22" freq="1800" file="e1_end_output.xml"/>
  <e1Detector id="14_E_-29988" lane="--31272#5_0" pos="48.96" freq="1800" file="e1_end_output.xml"/>
  <e1Detector id="15_E_-29988" lane="--31272#5_1" pos="48.96" freq="1800" file="e1_end_output.xml"/>
  <e1Detector id="16_E_-29988" lane="--31272#5_2" pos="48.96" freq="1800" file="e1_end_output.xml"/>
  <e1Detector id="17_B_-29988" lane="--31272#4_0" pos="5" freq="1800" file="e1_begin_output.xml"/>
  <e1Detector id="18_B_-29988" lane="--31272#4_1" pos="5" freq="1800" file="e1_begin_output.xml"/>
  <e1Detector id="19_B_-29988" lane="--31272#4_2" pos="5" freq="1800" file="e1_begin_output.xml"/>
  <e1Detector id="20_B_-29988" lane="-31320#3_0" pos="5" freq="1800" file="e1_begin_output.xml"/>
  <e1Detector id="21_B_-29988" lane="-31320#3_1" pos="5" freq="1800" file="e1_begin_output.xml"/>
  <e1Detector id="22_E_-29988" lane="-31320#2_0" pos="253.78" freq="1800" file="e1_end_output.xml"/>
  <e1Detector id="23_E_-29988" lane="-31320#2_1" pos="253.78" freq="1800" file="e1_end_output.xml"/>
  <e1Detector id="24_B_-29958" lane="-31070#5_0" pos="5" freq="1800" file="e1_begin_output.xml"/>
  <e1Detector id="25_B_-29958" lane="-31070#5_1" pos="5" freq="1800" file="e1_begin_output.xml"/>
  <e1Detector id="26_E_-29958" lane="-31070#4_0" pos="281.4" freq="1800" file="e1_end_output.xml"/>
  <e1Detector id="27_E_-29958" lane="-31070#4_1" pos="281.4" freq="1800" file="e1_end_output.xml"/>
  <e1Detector id="28_E_-29958" lane="--31070#5_0" pos="224.06" freq="1800" file="e1_end_output.xml"/>
  <e1Detector id="29_E_-29958" lane="--31070#5_1" pos="224.06" freq="1800" file="e1_end_output.xml"/>
  <e1Detector id="30_B_-29958" lane="--30596#2_0" pos="5" freq="1800" file="e1_begin_output.xml"/>
  <e1Detector id="31_B_-29958" lane="--30596#2_1" pos="5" freq="1800" file="e1_begin_output.xml"/>
  <e1Detector id="32_E_-29958" lane="-30596#2_0" pos="81.52" freq="1800" file="e1_end_output.xml"/>
  <e1Detector id="33_E_-29958" lane="-30596#2_1" pos="81.52" freq="1800" file="e1_end_output.xml"/>
  <e1Detector id="34_B_-29958" lane="--31070#4_0" pos="5" freq="1800" file="e1_begin_output.xml"/>
  <e1Detector id="35_B_-29958" lane="--31070#4_1" pos="5" freq="1800" file="e1_begin_output.xml"/>
  <e1Detector id="36_B_-29900" lane="--30608#7_0" pos="5" freq="1800" file="e1_begin_output.xml"/>
  <e1Detector id="37_B_-29900" lane="--30608#7_1" pos="5" freq="1800" file="e1_begin_output.xml"/>
  <e1Detector id="38_B_-29900" lane="--30608#7_2" pos="5" freq="1800" file="e1_begin_output.xml"/>
  <e1Detector id="39_E_-29900" lane="--30608#8_0" pos="243.97" freq="1800" file="e1_end_output.xml"/>
  <e1Detector id="40_E_-29900" lane="--30608#8_1" pos="243.97" freq="1800" file="e1_end_output.xml"/>
  <e1Detector id="41_E_-29900" lane="--30608#8_2" pos="243.97" freq="1800" file="e1_end_output.xml"/>
  <e1Detector id="42_B_-29900" lane="-32468#0_0" pos="5" freq="1800" file="e1_begin_output.xml"/>
  <e1Detector id="43_B_-29900" lane="-32468#0_1" pos="5" freq="1800" file="e1_begin_output.xml"/>
  <e1Detector id="44_B_-29900" lane="-30608#8_0" pos="5" freq="1800" file="e1_begin_output.xml"/>
  <e1Detector id="45_B_-29900" lane="-30608#8_1" pos="5" freq="1800" file="e1_begin_output.xml"/>
  <e1Detector id="46_B_-29900" lane="-30608#8_2" pos="5" freq="1800" file="e1_begin_output.xml"/>
  <e1Detector id="47_E_-29900" lane="-30608#7_0" pos="115.58" freq="1800" file="e1_end_output.xml"/>
  <e1Detector id="48_E_-29900" lane="-30608#7_1" pos="115.58" freq="1800" file="e1_end_output.xml"/>
  <e1Detector id="49_E_-29900" lane="-30608#7_2" pos="115.58" freq="1800" file="e1_end_output.xml"/>
  <e1Detector id="50_B_-29900" lane="-30902#0_0" pos="5" freq="1800" file="e1_begin_output.xml"/>
  <e1Detector id="51_E_-29900" lane="--30902#0_0" pos="242.76" freq="1800" file="e1_end_output.xml"/>
  <e1Detector id="52_E_-29900" lane="--32468#0_0" pos="251.36" freq="1800" file="e1_end_output.xml"/>
  <e1Detector id="53_E_-29900" lane="--32468#0_1" pos="251.36" freq="1800" file="e1_end_output.xml"/>
  <e1Detector id="54_E_-29558" lane="--31492#2_0" pos="53.17" freq="1800" file="e1_end_output.xml"/>
  <e1Detector id="55_E_-29558" lane="--31492#2_1" pos="53.17" freq="1800" file="e1_end_output.xml"/>
  <e1Detector id="56_E_-29558" lane="--31492#2_2" pos="53.17" freq="1800" file="e1_end_output.xml"/>
  <e1Detector id="57_B_-29558" lane="--31492#1_0" pos="5" freq="1800" file="e1_begin_output.xml"/>
  <e1Detector id="58_B_-29558" lane="--31492#1_1" pos="5" freq="1800" file="e1_begin_output.xml"/>
  <e1Detector id="59_B_-29558" lane="--31492#1_2" pos="5" freq="1800" file="e1_begin_output.xml"/>
  <e1Detector id="60_B_-29558" lane="-30528#0_0" pos="5" freq="1800" file="e1_begin_output.xml"/>
  <e1Detector id="61_B_-29558" lane="-30528#0_1" pos="5" freq="1800" file="e1_begin_output.xml"/>
  <e1Detector id="62_B_-29558" lane="-30528#0_2" pos="5" freq="1800" file="e1_begin_output.xml"/>
  <e1Detector id="63_E_-29558" lane="--30528#0_0" pos="84.09" freq="1800" file="e1_end_output.xml"/>
  <e1Detector id="64_E_-29558" lane="--30528#0_1" pos="84.09" freq="1800" file="e1_end_output.xml"/>
  <e1Detector id="65_E_-29558" lane="--30528#0_2" pos="84.09" freq="1800" file="e1_end_output.xml"/>
  <e1Detector id="66_B_-29558" lane="-31492#2_0" pos="5" freq="1800" file="e1_begin_output.xml"/>
  <e1Detector id="67_B_-29558" lane="-31492#2_1" pos="5" freq="1800" file="e1_begin_output.xml"/>
  <e1Detector id="68_B_-29558" lane="-31492#2_2" pos="5" freq="1800" file="e1_begin_output.xml"/>
  <e1Detector id="69_E_-29558" lane="-31492#1_0" pos="181.01" freq="1800" file="e1_end_output.xml"/>
  <e1Detector id="70_E_-29558" lane="-31492#1_1" pos="181.01" freq="1800" file="e1_end_output.xml"/>
  <e1Detector id="71_E_-29558" lane="-31492#1_2" pos="181.01" freq="1800" file="e1_end_output.xml"/>
  <e1Detector id="72_E_-29558" lane="-31994_0" pos="869.21" freq="1800" file="e1_end_output.xml"/>
  <e1Detector id="73_E_-29558" lane="-31994_1" pos="869.21" freq="1800" file="e1_end_output.xml"/>
  <e1Detector id="74_E_-29558" lane="-31994_2" pos="869.21" freq="1800" file="e1_end_output.xml"/>
  <e1Detector id="75_B_-29532" lane="--31972#1_0" pos="5" freq="1800" file="e1_begin_output.xml"/>
  <e1Detector id="76_E_-29532" lane="-32432#6_0" pos="186.45" freq="1800" file="e1_end_output.xml"/>
  <e1Detector id="77_E_-29532" lane="-32432#6_1" pos="186.45" freq="1800" file="e1_end_output.xml"/>
  <e1Detector id="78_B_-29532" lane="-32432#7_0" pos="5" freq="1800" file="e1_begin_output.xml"/>
  <e1Detector id="79_B_-29532" lane="-32432#7_1" pos="5" freq="1800" file="e1_begin_output.xml"/>
  <e1Detector id="80_E_-29532" lane="-31972#1_0" pos="455.9" freq="1800" file="e1_end_output.xml"/>
  <e1Detector id="81_B_-29532" lane="--32432#6_0" pos="5" freq="1800" file="e1_begin_output.xml"/>
  <e1Detector id="82_B_-29532" lane="--32432#6_1" pos="5" freq="1800" file="e1_begin_output.xml"/>
  <e1Detector id="83_E_-29532" lane="--32432#7_0" pos="346.42" freq="1800" file="e1_end_output.xml"/>
  <e1Detector id="84_E_-29532" lane="--32432#7_1" pos="346.42" freq="1800" file="e1_end_output.xml"/>
  <e1Detector id="85_B_-29460" lane="-30856#16_0" pos="5" freq="1800" file="e1_begin_output.xml"/>
  <e1Detector id="86_B_-29460" lane="-30856#16_1" pos="5" freq="1800" file="e1_begin_output.xml"/>
  <e1Detector id="87_B_-29460" lane="-30856#16_2" pos="5" freq="1800" file="e1_begin_output.xml"/>
  <e1Detector id="88_E_-29460" lane="-30856#15_0" pos="231.45" freq="1800" file="e1_end_output.xml"/>
  <e1Detector id="89_E_-29460" lane="-30856#15_1" pos="231.45" freq="1800" file="e1_end_output.xml"/>
  <e1Detector id="90_E_-29460" lane="-30856#15_2" pos="231.45" freq="1800" file="e1_end_output.xml"/>
  <e1Detector id="91_E_-29460" lane="--31134#0_0" pos="90.93" freq="1800" file="e1_end_output.xml"/>
  <e1Detector id="92_E_-29460" lane="--31134#0_1" pos="90.93" freq="1800" file="e1_end_output.xml"/>
  <e1Detector id="93_E_-29460" lane="--31134#0_2" pos="90.93" freq="1800" file="e1_end_output.xml"/>
  <e1Detector id="94_B_-29460" lane="-31134#0_0" pos="5" freq="1800" file="e1_begin_output.xml"/>
  <e1Detector id="95_B_-29460" lane="-31134#0_1" pos="5" freq="1800" file="e1_begin_output.xml"/>
  <e1Detector id="96_B_-29460" lane="-31134#0_2" pos="5" freq="1800" file="e1_begin_output.xml"/>
  <e1Detector id="97_E_-29460" lane="--30856#16_0" pos="491.26" freq="1800" file="e1_end_output.xml"/>
  <e1Detector id="98_E_-29460" lane="--30856#16_1" pos="491.26" freq="1800" file="e1_end_output.xml"/>
  <e1Detector id="99_E_-29460" lane="--30856#16_2" pos="491.26" freq="1800" file="e1_end_output.xml"/>
  <e1Detector id="100_B_-29460" lane="--30856#15_0" pos="5" freq="1800" file="e1_begin_output.xml"/>
  <e1Detector id="101_B_-29460" lane="--30856#15_1" pos="5" freq="1800" file="e1_begin_output.xml"/>
  <e1Detector id="102_B_-29460" lane="--30856#15_2" pos="5" freq="1800" file="e1_begin_output.xml"/>
  <e1Detector id="103_B_-29288" lane="-31990#0_0" pos="5" freq="1800" file="e1_begin_output.xml"/>
  <e1Detector id="104_E_-29288" lane="--31496#6_0" pos="147.51" freq="1800" file="e1_end_output.xml"/>
  <e1Detector id="105_E_-29288" lane="--31496#6_1" pos="147.51" freq="1800" file="e1_end_output.xml"/>
  <e1Detector id="106_E_-29288" lane="--31496#6_2" pos="147.51" freq="1800" file="e1_end_output.xml"/>
  <e1Detector id="107_B_-29288" lane="--31496#5_0" pos="5" freq="1800" file="e1_begin_output.xml"/>
  <e1Detector id="108_B_-29288" lane="--31496#5_1" pos="5" freq="1800" file="e1_begin_output.xml"/>
  <e1Detector id="109_B_-29288" lane="--31496#5_2" pos="5" freq="1800" file="e1_begin_output.xml"/>
  <e1Detector id="110_B_-29288" lane="--32664#2_0" pos="5" freq="1800" file="e1_begin_output.xml"/>
  <e1Detector id="111_B_-29288" lane="--32664#2_1" pos="5" freq="1800" file="e1_begin_output.xml"/>
  <e1Detector id="112_E_-29288" lane="--31990#0_0" pos="29.84" freq="1800" file="e1_end_output.xml"/>
  <e1Detector id="113_B_-29288" lane="-31496#6_0" pos="5" freq="1800" file="e1_begin_output.xml"/>
  <e1Detector id="114_B_-29288" lane="-31496#6_1" pos="5" freq="1800" file="e1_begin_output.xml"/>
  <e1Detector id="115_B_-29288" lane="-31496#6_2" pos="5" freq="1800" file="e1_begin_output.xml"/>
  <e1Detector id="116_E_-29288" lane="-31496#5_0" pos="453.91" freq="1800" file="e1_end_output.xml"/>
  <e1Detector id="117_E_-29288" lane="-31496#5_1" pos="453.91" freq="1800" file="e1_end_output.xml"/>
  <e1Detector id="118_E_-29288" lane="-31496#5_2" pos="453.91" freq="1800" file="e1_end_output.xml"/>
  <e1Detector id="119_E_-29288" lane="-32664#2_0" pos="184.9" freq="1800" file="e1_end_output.xml"/>
  <e1Detector id="120_E_-29288" lane="-32664#2_1" pos="184.9" freq="1800" file="e1_end_output.xml"/>
  <e1Detector id="121_E_-29116" lane="--32278#5_0" pos="841.83" freq="1800" file="e1_end_output.xml"/>
  <e1Detector id="122_E_-29116" lane="--32278#5_1" pos="841.83" freq="1800" file="e1_end_output.xml"/>
  <e1Detector id="123_E_-29116" lane="--32278#5_2" pos="841.83" freq="1800" file="e1_end_output.xml"/>
  <e1Detector id="124_E_-29116" lane="--32278#5_3" pos="841.83" freq="1800" file="e1_end_output.xml"/>
  <e1Detector id="125_B_-29116" lane="--31258#1_0" pos="5" freq="1800" file="e1_begin_output.xml"/>
  <e1Detector id="126_B_-29116" lane="--31258#1_1" pos="5" freq="1800" file="e1_begin_output.xml"/>
  <e1Detector id="127_B_-29116" lane="--32278#4_0" pos="5" freq="1800" file="e1_begin_output.xml"/>
  <e1Detector id="128_B_-29116" lane="--32278#4_1" pos="5" freq="1800" file="e1_begin_output.xml"/>
  <e1Detector id="129_B_-29116" lane="--32278#4_2" pos="5" freq="1800" file="e1_begin_output.xml"/>
  <e1Detector id="130_B_-29116" lane="--32278#4_3" pos="5" freq="1800" file="e1_begin_output.xml"/>
  <e1Detector id="131_E_-29116" lane="-32278#4_0" pos="525.64" freq="1800" file="e1_end_output.xml"/>
  <e1Detector id="132_E_-29116" lane="-32278#4_1" pos="525.64" freq="1800" file="e1_end_output.xml"/>
  <e1Detector id="133_E_-29116" lane="-32278#4_2" pos="525.64" freq="1800" file="e1_end_output.xml"/>
  <e1Detector id="134_E_-29116" lane="-32278#4_3" pos="525.64" freq="1800" file="e1_end_output.xml"/>
  <e1Detector id="135_B_-29116" lane="-32278#5_0" pos="5" freq="1800" file="e1_begin_output.xml"/>
  <e1Detector id="136_B_-29116" lane="-32278#5_1" pos="5" freq="1800" file="e1_begin_output.xml"/>
  <e1Detector id="137_B_-29116" lane="-32278#5_2" pos="5" freq="1800" file="e1_begin_output.xml"/>
  <e1Detector id="138_B_-29116" lane="-32278#5_3" pos="5" freq="1800" file="e1_begin_output.xml"/>
  <e1Detector id="139_E_-29116" lane="-31258#1_0" pos="115.56" freq="1800" file="e1_end_output.xml"/>
  <e1Detector id="140_E_-29116" lane="-31258#1_1" pos="115.56" freq="1800" file="e1_end_output.xml"/>
  <e1Detector id="141_B_-28954" lane="-30856#10_0" pos="5" freq="1800" file="e1_begin_output.xml"/>
  <e1Detector id="142_B_-28954" lane="-30856#10_1" pos="5" freq="1800" file="e1_begin_output.xml"/>
  <e1Detector id="143_B_-28954" lane="-30856#10_2" pos="5" freq="1800" file="e1_begin_output.xml"/>
  <e1Detector id="144_B_-28954" lane="--30856#9_0" pos="5" freq="1800" file="e1_begin_output.xml"/>
  <e1Detector id="145_B_-28954" lane="--30856#9_1" pos="5" freq="1800" file="e1_begin_output.xml"/>
  <e1Detector id="146_B_-28954" lane="--30856#9_2" pos="5" freq="1800" file="e1_begin_output.xml"/>
  <e1Detector id="147_B_-28954" lane="--32808#2_0" pos="5" freq="1800" file="e1_begin_output.xml"/>
  <e1Detector id="148_E_-28954" lane="-30856#9_0" pos="281.68" freq="1800" file="e1_end_output.xml"/>
  <e1Detector id="149_E_-28954" lane="-30856#9_1" pos="281.68" freq="1800" file="e1_end_output.xml"/>
  <e1Detector id="150_E_-28954" lane="-30856#9_2" pos="281.68" freq="1800" file="e1_end_output.xml"/>
  <e1Detector id="151_E_-28954" lane="-32808#2_0" pos="81.95" freq="1800" file="e1_end_output.xml"/>
  <e1Detector id="152_E_-28954" lane="--30856#10_0" pos="255.19" freq="1800" file="e1_end_output.xml"/>
  <e1Detector id="153_E_-28954" lane="--30856#10_1" pos="255.19" freq="1800" file="e1_end_output.xml"/>
  <e1Detector id="154_E_-28954" lane="--30856#10_2" pos="255.19" freq="1800" file="e1_end_output.xml"/>
  <e1Detector id="155_B_-28916" lane="-32550#0_0" pos="5" freq="1800" file="e1_begin_output.xml"/>
  <e1Detector id="156_E_-28916" lane="--30648#3_0" pos="162.32" freq="1800" file="e1_end_output.xml"/>
  <e1Detector id="157_E_-28916" lane="--30648#3_1" pos="162.32" freq="1800" file="e1_end_output.xml"/>
  <e1Detector id="158_E_-28916" lane="--30648#3_2" pos="162.32" freq="1800" file="e1_end_output.xml"/>
  <e1Detector id="159_B_-28916" lane="--30648#2_0" pos="5" freq="1800" file="e1_begin_output.xml"/>
  <e1Detector id="160_B_-28916" lane="--30648#2_1" pos="5" freq="1800" file="e1_begin_output.xml"/>
  <e1Detector id="161_B_-28916" lane="--30648#2_2" pos="5" freq="1800" file="e1_begin_output.xml"/>
  <e1Detector id="162_B_-28916" lane="--32726#1_0" pos="5" freq="1800" file="e1_begin_output.xml"/>
  <e1Detector id="163_E_-28916" lane="--32550#0_0" pos="63.58" freq="1800" file="e1_end_output.xml"/>
  <e1Detector id="164_B_-28916" lane="-30648#3_0" pos="5" freq="1800" file="e1_begin_output.xml"/>
  <e1Detector id="165_B_-28916" lane="-30648#3_1" pos="5" freq="1800" file="e1_begin_output.xml"/>
  <e1Detector id="166_B_-28916" lane="-30648#3_2" pos="5" freq="1800" file="e1_begin_output.xml"/>
  <e1Detector id="167_E_-28916" lane="-30648#2_0" pos="117.56" freq="1800" file="e1_end_output.xml"/>
  <e1Detector id="168_E_-28916" lane="-30648#2_1" pos="117.56" freq="1800" file="e1_end_output.xml"/>
  <e1Detector id="169_E_-28916" lane="-30648#2_2" pos="117.56" freq="1800" file="e1_end_output.xml"/>
  <e1Detector id="170_E_-28916" lane="-32726#1_0" pos="316.29" freq="1800" file="e1_end_output.xml"/>
  <e1Detector id="171_B_-28860" lane="-31346_0" pos="5" freq="1800" file="e1_begin_output.xml"/>
  <e1Detector id="172_B_-28860" lane="-31940#1_0" pos="5" freq="1800" file="e1_begin_output.xml"/>
  <e1Detector id="173_B_-28860" lane="-31940#1_1" pos="5" freq="1800" file="e1_begin_output.xml"/>
  <e1Detector id="174_B_-28860" lane="-31940#1_2" pos="5" freq="1800" file="e1_begin_output.xml"/>
  <e1Detector id="175_E_-28860" lane="-31940#0_0" pos="29.84" freq="1800" file="e1_end_output.xml"/>
  <e1Detector id="176_E_-28860" lane="-31940#0_1" pos="29.84" freq="1800" file="e1_end_output.xml"/>
  <e1Detector id="177_E_-28860" lane="-31940#0_2" pos="29.84" freq="1800" file="e1_end_output.xml"/>
  <e1Detector id="178_E_-28860" lane="--31940#1_0" pos="76.43" freq="1800" file="e1_end_output.xml"/>
  <e1Detector id="179_E_-28860" lane="--31940#1_1" pos="76.43" freq="1800" file="e1_end_output.xml"/>
  <e1Detector id="180_E_-28860" lane="--31940#1_2" pos="76.43" freq="1800" file="e1_end_output.xml"/>
  <e1Detector id="181_B_-28860" lane="--31940#0_0" pos="5" freq="1800" file="e1_begin_output.xml"/>
  <e1Detector id="182_B_-28860" lane="--31940#0_1" pos="5" freq="1800" file="e1_begin_output.xml"/>
  <e1Detector id="183_B_-28860" lane="--31940#0_2" pos="5" freq="1800" file="e1_begin_output.xml"/>
  <e1Detector id="184_E_-28692" lane="-31070#7_0" pos="189.29" freq="1800" file="e1_end_output.xml"/>
  <e1Detector id="185_E_-28692" lane="-31070#7_1" pos="189.29" freq="1800" file="e1_end_output.xml"/>
  <e1Detector id="186_E_-28692" lane="--30444#0_0" pos="255.96" freq="1800" file="e1_end_output.xml"/>
  <e1Detector id="187_E_-28692" lane="--30444#0_1" pos="255.96" freq="1800" file="e1_end_output.xml"/>
  <e1Detector id="188_B_-28692" lane="--32010#1_0" pos="5" freq="1800" file="e1_begin_output.xml"/>
  <e1Detector id="189_B_-28692" lane="-30444#0_0" pos="5" freq="1800" file="e1_begin_output.xml"/>
  <e1Detector id="190_B_-28692" lane="-30444#0_1" pos="5" freq="1800" file="e1_begin_output.xml"/>
  <e1Detector id="191_E_-28692" lane="-32010#1_0" pos="98.69" freq="1800" file="e1_end_output.xml"/>
  <e1Detector id="192_B_-28692" lane="--31070#7_0" pos="5" freq="1800" file="e1_begin_output.xml"/>
  <e1Detector id="193_B_-28692" lane="--31070#7_1" pos="5" freq="1800" file="e1_begin_output.xml"/>
  <e1Detector id="194_E_-28692" lane="--31070#8_0" pos="304.62" freq="1800" file="e1_end_output.xml"/>
  <e1Detector id="195_E_-28692" lane="--31070#8_1" pos="304.62" freq="1800" file="e1_end_output.xml"/>
  <e1Detector id="196_B_-28692" lane="-31070#8_0" pos="5" freq="1800" file="e1_begin_output.xml"/>
  <e1Detector id="197_B_-28692" lane="-31070#8_1" pos="5" freq="1800" file="e1_begin_output.xml"/>
  <e1Detector id="198_E_-28576" lane="--30358#4_0" pos="58.54" freq="1800" file="e1_end_output.xml"/>
  <e1Detector id="199_E_-28576" lane="--30358#4_1" pos="58.54" freq="1800" file="e1_end_output.xml"/>
  <e1Detector id="200_B_-28576" lane="--30358#3_0" pos="5" freq="1800" file="e1_begin_output.xml"/>
  <e1Detector id="201_B_-28576" lane="--30358#3_1" pos="5" freq="1800" file="e1_begin_output.xml"/>
  <e1Detector id="202_E_-28576" lane="-30358#3_0" pos="87.25" freq="1800" file="e1_end_output.xml"/>
  <e1Detector id="203_E_-28576" lane="-30358#3_1" pos="87.25" freq="1800" file="e1_end_output.xml"/>
  <e1Detector id="204_B_-28576" lane="-30358#4_0" pos="5" freq="1800" file="e1_begin_output.xml"/>
  <e1Detector id="205_B_-28576" lane="-30358#4_1" pos="5" freq="1800" file="e1_begin_output.xml"/>
  <e1Detector id="206_B_-28576" lane="-31062#0_0" pos="5" freq="1800" file="e1_begin_output.xml"/>
  <e1Detector id="207_B_-28504" lane="-30812_0" pos="5" freq="1800" file="e1_begin_output.xml"/>
  <e1Detector id="208_B_-28504" lane="-30812_1" pos="5" freq="1800" file="e1_begin_output.xml"/>
  <e1Detector id="209_B_-28504" lane="-30528#4_0" pos="5" freq="1800" file="e1_begin_output.xml"/>
  <e1Detector id="210_B_-28504" lane="-30528#4_1" pos="5" freq="1800" file="e1_begin_output.xml"/>
  <e1Detector id="211_B_-28504" lane="-30528#4_2" pos="5" freq="1800" file="e1_begin_output.xml"/>
  <e1Detector id="212_E_-28504" lane="-30528#3_0" pos="96.91" freq="1800" file="e1_end_output.xml"/>
  <e1Detector id="213_E_-28504" lane="-30528#3_1" pos="96.91" freq="1800" file="e1_end_output.xml"/>
  <e1Detector id="214_E_-28504" lane="-30528#3_2" pos="96.91" freq="1800" file="e1_end_output.xml"/>
  <e1Detector id="215_B_-28504" lane="--30528#3_0" pos="5" freq="1800" file="e1_begin_output.xml"/>
  <e1Detector id="216_B_-28504" lane="--30528#3_1" pos="5" freq="1800" file="e1_begin_output.xml"/>
  <e1Detector id="217_B_-28504" lane="--30528#3_2" pos="5" freq="1800" file="e1_begin_output.xml"/>
  <e1Detector id="218_E_-28504" lane="--31834#0_0" pos="98.2" freq="1800" file="e1_end_output.xml"/>
  <e1Detector id="219_E_-28504" lane="--31834#0_1" pos="98.2" freq="1800" file="e1_end_output.xml"/>
  <e1Detector id="220_E_-28504" lane="--31834#0_2" pos="98.2" freq="1800" file="e1_end_output.xml"/>
  <e1Detector id="221_E_-28504" lane="--30812_0" pos="38.59" freq="1800" file="e1_end_output.xml"/>
  <e1Detector id="222_E_-28504" lane="--30812_1" pos="38.59" freq="1800" file="e1_end_output.xml"/>
  <e1Detector id="223_E_-28504" lane="--30528#4_0" pos="164.48" freq="1800" file="e1_end_output.xml"/>
  <e1Detector id="224_E_-28504" lane="--30528#4_1" pos="164.48" freq="1800" file="e1_end_output.xml"/>
  <e1Detector id="225_E_-28504" lane="--30528#4_2" pos="164.48" freq="1800" file="e1_end_output.xml"/>
  <e1Detector id="226_B_-28504" lane="-31834#0_0" pos="5" freq="1800" file="e1_begin_output.xml"/>
  <e1Detector id="227_B_-28504" lane="-31834#0_1" pos="5" freq="1800" file="e1_begin_output.xml"/>
  <e1Detector id="228_B_-28504" lane="-31834#0_2" pos="5" freq="1800" file="e1_begin_output.xml"/>
  <e1Detector id="229_B_-28424" lane="--31174#2_0" pos="5" freq="1800" file="e1_begin_output.xml"/>
  <e1Detector id="230_B_-28424" lane="--31174#2_1" pos="5" freq="1800" file="e1_begin_output.xml"/>
  <e1Detector id="231_E_-28424" lane="-31174#2_0" pos="527.78" freq="1800" file="e1_end_output.xml"/>
  <e1Detector id="232_E_-28424" lane="-31174#2_1" pos="527.78" freq="1800" file="e1_end_output.xml"/>
  <e1Detector id="233_E_-28424" lane="-31952#14_0" pos="382.14" freq="1800" file="e1_end_output.xml"/>
  <e1Detector id="234_E_-28424" lane="-31952#14_1" pos="382.14" freq="1800" file="e1_end_output.xml"/>
  <e1Detector id="235_E_-28424" lane="-31952#14_2" pos="382.14" freq="1800" file="e1_end_output.xml"/>
  <e1Detector id="236_B_-28424" lane="-31952#15_0" pos="5" freq="1800" file="e1_begin_output.xml"/>
  <e1Detector id="237_B_-28424" lane="-31952#15_1" pos="5" freq="1800" file="e1_begin_output.xml"/>
  <e1Detector id="238_B_-28424" lane="-31952#15_2" pos="5" freq="1800" file="e1_begin_output.xml"/>
  <e1Detector id="239_B_-28424" lane="--31952#14_0" pos="5" freq="1800" file="e1_begin_output.xml"/>
  <e1Detector id="240_B_-28424" lane="--31952#14_1" pos="5" freq="1800" file="e1_begin_output.xml"/>
  <e1Detector id="241_B_-28424" lane="--31952#14_2" pos="5" freq="1800" file="e1_begin_output.xml"/>
  <e1Detector id="242_E_-28424" lane="--31952#15_0" pos="180.14" freq="1800" file="e1_end_output.xml"/>
  <e1Detector id="243_E_-28424" lane="--31952#15_1" pos="180.14" freq="1800" file="e1_end_output.xml"/>
  <e1Detector id="244_E_-28424" lane="--31952#15_2" pos="180.14" freq="1800" file="e1_end_output.xml"/>
  <e1Detector id="245_B_-28416" lane="--31134#1_0" pos="5" freq="1800" file="e1_begin_output.xml"/>
  <e1Detector id="246_B_-28416" lane="--31134#1_1" pos="5" freq="1800" file="e1_begin_output.xml"/>
  <e1Detector id="247_B_-28416" lane="--31134#1_2" pos="5" freq="1800" file="e1_begin_output.xml"/>
  <e1Detector id="248_B_-28416" lane="--32674#1_0" pos="5" freq="1800" file="e1_begin_output.xml"/>
  <e1Detector id="249_B_-28416" lane="--32674#1_1" pos="5" freq="1800" file="e1_begin_output.xml"/>
  <e1Detector id="250_B_-28416" lane="--32674#1_2" pos="5" freq="1800" file="e1_begin_output.xml"/>
  <e1Detector id="251_E_-28416" lane="--32674#2_0" pos="486.44" freq="1800" file="e1_end_output.xml"/>
  <e1Detector id="252_E_-28416" lane="--32674#2_1" pos="486.44" freq="1800" file="e1_end_output.xml"/>
  <e1Detector id="253_E_-28416" lane="--32674#2_2" pos="486.44" freq="1800" file="e1_end_output.xml"/>
  <e1Detector id="254_E_-28416" lane="-32674#1_0" pos="1591.29" freq="1800" file="e1_end_output.xml"/>
  <e1Detector id="255_E_-28416" lane="-32674#1_1" pos="1591.29" freq="1800" file="e1_end_output.xml"/>
  <e1Detector id="256_E_-28416" lane="-32674#1_2" pos="1591.29" freq="1800" file="e1_end_output.xml"/>
  <e1Detector id="257_B_-28416" lane="-32674#2_0" pos="5" freq="1800" file="e1_begin_output.xml"/>
  <e1Detector id="258_B_-28416" lane="-32674#2_1" pos="5" freq="1800" file="e1_begin_output.xml"/>
  <e1Detector id="259_B_-28416" lane="-32674#2_2" pos="5" freq="1800" file="e1_begin_output.xml"/>
  <e1Detector id="260_E_-28416" lane="-31134#1_0" pos="587.45" freq="1800" file="e1_end_output.xml"/>
  <e1Detector id="261_E_-28416" lane="-31134#1_1" pos="587.45" freq="1800" file="e1_end_output.xml"/>
  <e1Detector id="262_E_-28416" lane="-31134#1_2" pos="587.45" freq="1800" file="e1_end_output.xml"/>
  <e1Detector id="263_E_-28404" lane="--31768#4_0" pos="46.3" freq="1800" file="e1_end_output.xml"/>
  <e1Detector id="264_E_-28404" lane="--31768#4_1" pos="46.3" freq="1800" file="e1_end_output.xml"/>
  <e1Detector id="265_E_-28404" lane="--31768#4_2" pos="46.3" freq="1800" file="e1_end_output.xml"/>
  <e1Detector id="266_B_-28404" lane="--31768#3_0" pos="5" freq="1800" file="e1_begin_output.xml"/>
  <e1Detector id="267_B_-28404" lane="--31768#3_1" pos="5" freq="1800" file="e1_begin_output.xml"/>
  <e1Detector id="268_B_-28404" lane="--31768#3_2" pos="5" freq="1800" file="e1_begin_output.xml"/>
  <e1Detector id="269_B_-28404" lane="-31768#4_0" pos="5" freq="1800" file="e1_begin_output.xml"/>
  <e1Detector id="270_B_-28404" lane="-31768#4_1" pos="5" freq="1800" file="e1_begin_output.xml"/>
  <e1Detector id="271_B_-28404" lane="-31768#4_2" pos="5" freq="1800" file="e1_begin_output.xml"/>
  <e1Detector id="272_E_-28404" lane="-31768#3_0" pos="394.42" freq="1800" file="e1_end_output.xml"/>
  <e1Detector id="273_E_-28404" lane="-31768#3_1" pos="394.42" freq="1800" file="e1_end_output.xml"/>
  <e1Detector id="274_E_-28404" lane="-31768#3_2" pos="394.42" freq="1800" file="e1_end_output.xml"/>
  <e1Detector id="275_B_-28404" lane="-32878#4_0" pos="5" freq="1800" file="e1_begin_output.xml"/>
  <e1Detector id="276_B_-28404" lane="-32878#4_1" pos="5" freq="1800" file="e1_begin_output.xml"/>
  <e1Detector id="277_E_-28404" lane="-32878#3_0" pos="262.31" freq="1800" file="e1_end_output.xml"/>
  <e1Detector id="278_E_-28404" lane="-32878#3_1" pos="262.31" freq="1800" file="e1_end_output.xml"/>
  <e1Detector id="279_B_-28404" lane="--32878#3_0" pos="5" freq="1800" file="e1_begin_output.xml"/>
  <e1Detector id="280_B_-28404" lane="--32878#3_1" pos="5" freq="1800" file="e1_begin_output.xml"/>
  <e1Detector id="281_E_-28404" lane="--32878#4_0" pos="114.09" freq="1800" file="e1_end_output.xml"/>
  <e1Detector id="282_E_-28404" lane="--32878#4_1" pos="114.09" freq="1800" file="e1_end_output.xml"/>
  <e1Detector id="283_E_-28210" lane="--31884#0_0" pos="120.59" freq="1800" file="e1_end_output.xml"/>
  <e1Detector id="284_E_-28210" lane="--31884#0_1" pos="120.59" freq="1800" file="e1_end_output.xml"/>
  <e1Detector id="285_B_-28210" lane="-31884#0_0" pos="5" freq="1800" file="e1_begin_output.xml"/>
  <e1Detector id="286_B_-28210" lane="-31884#0_1" pos="5" freq="1800" file="e1_begin_output.xml"/>
  <e1Detector id="287_E_-28210" lane="-31794#3_0" pos="412.73" freq="1800" file="e1_end_output.xml"/>
  <e1Detector id="288_E_-28210" lane="-31794#3_1" pos="412.73" freq="1800" file="e1_end_output.xml"/>
  <e1Detector id="289_B_-28210" lane="--31794#3_0" pos="5" freq="1800" file="e1_begin_output.xml"/>
  <e1Detector id="290_B_-28210" lane="--31794#3_1" pos="5" freq="1800" file="e1_begin_output.xml"/>
  <e1Detector id="291_E_-28120" lane="--31788_0" pos="30.0" freq="1800" file="e1_end_output.xml"/>
  <e1Detector id="292_E_-28120" lane="--31788_1" pos="30.0" freq="1800" file="e1_end_output.xml"/>
  <e1Detector id="293_B_-28120" lane="-32468#3_0" pos="5" freq="1800" file="e1_begin_output.xml"/>
  <e1Detector id="294_B_-28120" lane="-32468#3_1" pos="5" freq="1800" file="e1_begin_output.xml"/>
  <e1Detector id="295_B_-28120" lane="-31788_0" pos="5" freq="1800" file="e1_begin_output.xml"/>
  <e1Detector id="296_B_-28120" lane="-31788_1" pos="5" freq="1800" file="e1_begin_output.xml"/>