[General]
cmdenv-express-mode = true
cmdenv-autoflush = true
cmdenv-status-frequency = 10000000s

#tkenv-default-config = accident
#tkenv-default-run = 1
tkenv-image-path = bitmaps

ned-path = ../../src/base;../../src/modules;../../tests;
network = scenario

##########################################################
#			Simulation parameters                        #
##########################################################
debug-on-errors = true
print-undisposed = false

sim-time-limit = 6000s

**.udpapp.*.vector-recording = true
**.vector-recording = true

**.debug = false
**.coreDebug = false

*.playgroundSizeX = 10672m
*.playgroundSizeY = 7105m
*.playgroundSizeZ = 10000m


##########################################################
#			WorldUtility parameters                      #
##########################################################
*.world.useTorus = false
*.world.use2D = true

##########################################################
#			TraCIScenarioManager parameters              #
##########################################################
*.manager.updateInterval = 1s
*.manager.host = "localhost"
*.manager.port = 9999
*.manager.moduleType = "org.mixim.tests.traci.Car"
*.manager.moduleName = "node"
*.manager.moduleDisplayString = ""
*.manager.autoShutdown = true
*.manager.margin = 25
*.manager.launchConfig = xmldoc("sumo-launchd.launch.xml")

##########################################################
#			         channel parameters                  #
##########################################################
*.connectionManager.sendDirect = false
*.connectionManager.pMax = 100mW
*.connectionManager.sat = -84dBm
*.connectionManager.alpha = 3.0
*.connectionManager.carrierFrequency = 2.412e+9Hz


################ PhyLayer parameters #####################
*.node[*].nic.phy.usePropagationDelay = false
*.node[*].nic.phy.thermalNoise = -100dBm
*.node[*].nic.phy.useThermalNoise = true
        
*.node[*].nic.phy.analogueModels = xmldoc("config.xml")
*.node[*].nic.phy.decider = xmldoc("config.xml")

*.node[*].nic.phy.timeRXToTX = 0.00021s
*.node[*].nic.phy.timeRXToSleep = 0.000031s

*.node[*].nic.phy.timeTXToRX = 0.00012s
*.node[*].nic.phy.timeTXToSleep = 0.000032s

*.node[*].nic.phy.timeSleepToRX = 0.000102s
*.node[*].nic.phy.timeSleepToTX = 0.000203s

*.node[*].nic.phy.sensitivity = -80dBm
*.node[*].nic.phy.maxTXPower = 100.0mW

*.node[*].nic.phy.initialRadioState = 0

################ MAC layer parameters ####################
*.node[*].nic.mac.queueLength = 5
*.node[*].nic.mac.headerLength = 24bit
*.node[*].nic.mac.slotDuration = 0.04s
*.node[*].nic.mac.difs = 0.0005s
*.node[*].nic.mac.maxTxAttempts = 14
*.node[*].nic.mac.defaultChannel = 0
*.node[*].nic.mac.bitrate = 15360bps
*.node[*].nic.mac.contentionWindow = 20
*.node[*].nic.mac.txPower = 100mW  # [mW]

################ NETW layer parameters ####################

################ Mobility parameters #####################
*.node[*].mobility.x = 0
*.node[*].mobility.y = 0
*.node[*].mobility.z = 0
*.node[*].mobility.accidentCount = 0
*.node[*].mobility.accidentStart = -1s
*.node[*].mobility.accidentDuration = -1s
*.node[*].mobility.accidentInterval = -1s

*.node[*].applType = "org.mixim.tests.traci.TraCITestApp"
*.node[*].appl.debug = false
*.node[0].appl.testNumber = ${0..9}
*.node[*].appl.testNumber = -1

*.node[*].mobilityType = "TraCIMobility"
*.node[*].mobility.debug = false
*.node[*].mobility.speed = 1mps
*.node[*].mobility.updateInterval = 0.1s

*.node[*].netwType = "BaseNetwLayer"
*.node[*].net.debug = false
*.node[*].net.stats = false
*.node[*].net.headerLength = 32bit
