[General]
cmdenv-express-mode = true
cmdenv-autoflush = true
cmdenv-status-frequency = 10000000s

#tkenv-default-config = accident
#tkenv-default-run = 1
ned-path = .

network = scenario

##########################################################
#            Simulation parameters                       #
##########################################################
debug-on-errors = true
print-undisposed = false

sim-time-limit = 100s

**.scalar-recording = true
**.vector-recording = true

**.debug = false
**.coreDebug = false

*.playgroundSizeX = 10672m
*.playgroundSizeY = 7105m
*.playgroundSizeZ = 10000m


##########################################################
# Annotation parameters                                  #
##########################################################
*.annotations.draw = false

##########################################################
# Obstacle parameters                                    #
##########################################################
*.obstacles.debug = false

##########################################################
#            WorldUtility parameters                     #
##########################################################
*.world.useTorus = false
*.world.use2D = false

##########################################################
#            TraCIScenarioManager parameters             #
##########################################################
*.manager.updateInterval = 1s
*.manager.host = "localhost"
*.manager.port = 9999
*.manager.moduleType = "org.car2x.veins.nodes.Car"
*.manager.moduleName = "node"
*.manager.moduleDisplayString = ""
*.manager.autoShutdown = true
*.manager.margin = 25
*.manager.launchConfig = xmldoc("sumo-launchd.launch.xml")

##########################################################
#            11p specific parameters                     #
#                                                        #
#                    NIC-Settings                        #
##########################################################
*.connectionManager.sendDirect = true
*.connectionManager.maxInterfDist = 2600m
*.connectionManager.drawMaxIntfDist = false

*.**.nic.mac1609_4.useServiceChannel = false

*.**.nic.mac1609_4.txPower = 20mW
*.**.nic.mac1609_4.bitrate = 18Mbps

*.**.nic.phy80211p.sensitivity = -89dBm
*.**.nic.phy80211p.useThermalNoise = true
*.**.nic.phy80211p.thermalNoise = -110dBm
*.**.nic.phy80211p.decider = xmldoc("config.xml")
*.**.nic.phy80211p.analogueModels = xmldoc("config.xml")
*.**.nic.phy80211p.usePropagationDelay = true

##########################################################
#                      AppLayer                          #
##########################################################

*.node[*].applType = "org.car2x.veins.modules.application.traci.TraCITestApp"
*.node[*].appl.debug = false
*.node[0].appl.testNumber = ${0..14}
*.node[*].appl.testNumber = -1

##########################################################
#                      Mobility                          #
##########################################################
*.node[*].veinsmobilityType = "org.car2x.veins.modules.mobility.traci.TraCIMobility"
*.node[*].veinsmobility.debug = false
*.node[*].veinsmobility.x = 0
*.node[*].veinsmobility.y = 0
*.node[*].veinsmobility.z = 1.895
*.node[*].veinsmobility.accidentCount = 0
