[General]
;ini-warnings = true
network = sim
#random-seed = 13
sim-time-limit = 500s

[Tkenv]
;bitmap-path="~/omnetpp/bitmaps"
default-run=1
use-mainwindow = yes
print-banners = yes
slowexec-delay = 300ms
update-freq-fast = 10
update-freq-express = 100
breakpoints-enabled = yes

[Cmdenv]
runs-to-execute = 1
event-banners = no
module-messages = no
; verbose-snrSimulation = no
; verbose-snrSimulation = yes

[DisplayStrings]


[Parameters]



##############################################################################
#       Parameters for the entire simulation                                 #
##############################################################################
sim.playgroundSizeX = 500
sim.playgroundSizeY = 350
sim.playgroundSizeZ = 0
sim.numHosts = 5
sim.world.useTorus = 0

# uncomment to enable debug messages for all modules
**.debug = 1
**.coreDebug = 1


##############################################################################
#       Parameters for the ConnectionManagers                                #
##############################################################################
sim.strongChannel.carrierFrequency = 868e+6

# max transmission power [mW]
sim.strongChannel.pMax  = 3
# signal attenuation threshold [dBm]
sim.strongChannel.sat   = -110
# path loss coefficient alpha
sim.strongChannel.alpha = 3.5

sim.strongChannel.sendDirect = 0
sim.strongChannel.useTorus = 0

######### Weak channel ##########

sim.weakChannel.carrierFrequency = 868e+6

# max transmission power [mW]
sim.weakChannel.pMax  = 1
# signal attenuation threshold [dBm]
sim.weakChannel.sat   = -110
# path loss coefficient alpha
sim.weakChannel.alpha = 3.5

sim.weakChannel.sendDirect = 0
sim.weakChannel.useTorus = 0


sim.strongNodes[*].applType = "TestApplLayer"
sim.weakNodes[*].applType = "TestApplLayer"

##############################################################################
#       Parameters for the utility Module                                   #
##############################################################################
# starting position for the nodes "-1" means random staring point

sim.strongNodes[0].utility.x = 30
sim.strongNodes[0].utility.y = 75

sim.strongNodes[1].utility.x = 290
sim.strongNodes[1].utility.y = 160

sim.strongNodes[2].utility.x = 420
sim.strongNodes[2].utility.y = 120

sim.strongNodes[3].utility.x = 380
sim.strongNodes[3].utility.y = 30

sim.strongNodes[4].utility.x = 220
sim.strongNodes[4].utility.y = 60

sim.weakNodes[0].utility.x = 450
sim.weakNodes[0].utility.y = 320

sim.weakNodes[1].utility.x = 150
sim.weakNodes[1].utility.y = 155

sim.weakNodes[2].utility.x = 330
sim.weakNodes[2].utility.y = 280

sim.weakNodes[3].utility.x = 70
sim.weakNodes[3].utility.y = 257

sim.weakNodes[4].utility.x = 150
sim.weakNodes[4].utility.y = 300

sim.weakNodes[*].utility.x=-1
sim.weakNodes[*].utility.y=-1
sim.weakNodes[*].utility.z=0

sim.strongNodes[*].utility.x=-1
sim.strongNodes[*].utility.y=-1
sim.strongNodes[*].utility.z=0


##############################################################################
#       Parameters for the Host                                              #
##############################################################################

##############################################################################
#       Parameters for the Application Layer                                 #
##############################################################################

# debug switch
sim.*Nodes[*].appl.debug = 1
sim.*Nodes[*].appl.headerLength=12
sim.*Nodes[*].appl.burstSize=3


##############################################################################
#       Parameters for the Network Layer                                     #
##############################################################################
sim.*Nodes[*].net.headerLength=24
sim.*Nodes[*].net.debug = 0
sim.*Nodes[*].net.coreDebug = 0
sim.*Nodes[*].net.stats = 0

##############################################################################
#       Parameters for ARP
##############################################################################
sim.*Nodes[*].arp.debug = 0


##############################################################################
#       Parameters for the MAC Layer                                         #
##############################################################################

sim.*Nodes[*].nic.mac.debug = 1
sim.*Nodes[*].nic.mac.queueLength=5
sim.*Nodes[*].nic.mac.headerLength=24
sim.*Nodes[*].nic.mac.defaultChannel = 0
sim.*Nodes[*].nic.mac.bitrate = 15360
sim.*Nodes[*].nic.chan.debug = 0 


##############################################################################
#       Parameters for the radio
##############################################################################

sim.*Nodes[*].nic.radio.swSleep = 0
sim.*Nodes[*].nic.radio.swSend = 0.001
sim.*Nodes[*].nic.radio.swRecv = 0.003
sim.*Nodes[*].nic.radio.debug = 0


##############################################################################
#       Parameters for the Physical Layer                                    #
##############################################################################

# debug switch
sim.*Nodes[*].nic.phy.debug = 1
sim.*Nodes[*].nic.phy.publishRSSIAlways = 0
sim.*Nodes[*].nic.phy.headerLength=16
# transmission power [mW]
sim.weakNodes[*].nic.phy.transmitterPower=1
sim.strongNodes[*].nic.phy.transmitterPower=3

sim.*Nodes[*].nic.phy.carrierFrequency=868E+6
sim.*Nodes[*].nic.phy.thermalNoise=-120
sim.*Nodes[*].nic.phy.sensitivity=-110
sim.*Nodes[*].nic.phy.pathLossAlpha=3.5
sim.*Nodes[*].nic.phy.bitrate=1000

sim.*Nodes[*].nic.decider.debug = 1
sim.*Nodes[*].nic.decider.snrThresholdLevel=10;[dB]

sim.weakNodes[*].nic.phy.connectionManagerName = "weakChannel"
sim.strongNodes[*].nic.phy.connectionManagerName = "strongChannel"

##############################################################################
#       Parameters for the Mobility                                          #
##############################################################################
sim.*Nodes[*].mobility.debug = 0

sim.*Nodes[*].mobility.updateInterval = 0.5
sim.*Nodes[*].mobility.speed          = 20.0

# starting position for the hosts "-1" means random staring point
sim.*Nodes[*].mobility.x = -1
sim.*Nodes[*].mobility.y = -1

