[General]
cmdenv-express-mode = true
cmdenv-autoflush = true
cmdenv-status-frequency = 1s

ned-path = .

network = RSUExampleScenario

##########################################################
#            Simulation parameters                       #
##########################################################
debug-on-errors = true
print-undisposed = false

sim-time-limit = 200s

**.scalar-recording = true
**.vector-recording = true

**.debug = false
**.coreDebug = false

*.playgroundSizeX = 2500m
*.playgroundSizeY = 2500m
*.playgroundSizeZ = 50m


##########################################################
# Annotation parameters                                  #
##########################################################
*.annotations.draw = true

##########################################################
# Obstacle parameters                                    #
##########################################################
*.obstacles.debug = false
*.obstacles.obstacles = xmldoc("config-arib.xml", "//AnalogueModel[@type='SimpleObstacleShadowing']/obstacles")

##########################################################
#            TraCIScenarioManager parameters             #
##########################################################
*.manager.updateInterval = 1s
*.manager.host = "localhost"
*.manager.port = 9999
*.manager.autoShutdown = true
*.manager.launchConfig = xmldoc("erlangen.launchd.xml")

##########################################################
#                       RSU SETTINGS                     #
#                                                        #
#                                                        #
##########################################################
*.rsu[0].mobility.x = 2000
*.rsu[0].mobility.y = 2000
*.rsu[0].mobility.z = 3

*.rsu[*].applType = "TraCIDemoRSU11p"
*.rsu[*].appl.headerLength = 80 bit
*.rsu[*].appl.sendBeacons = true
*.rsu[*].appl.dataOnSch = false
*.rsu[*].appl.beaconInterval = 1s
*.rsu[*].appl.beaconPriority = 3
*.rsu[*].appl.dataPriority = 2

##########################################################
#              ARIB specific parameters                  #
#                                                        #
#                    NIC-Settings                        #
##########################################################
*.connectionManager.sendDirect = true
*.connectionManager.maxInterfDist = 2600m
*.connectionManager.drawMaxIntfDist = false

**.nicType = "AribT109Nic"
*.rsu[*].nic.aribT109Mac.typename = "AribT109BaseStationMacLayer"
*.rsu[*].nic.aribT109Mac.rvcPeriodDurations = "3024, 3024, 3024, 3024, 3024, 3024, 3024, 3024, 3024, 3024, 3024, 3024, 3024, 3024, 3024, 3024"
*.rsu[0].nic.aribT109Mac.baseStationTransmissionPeriodDurations = "3024, 3024, 3024, 3024, 3024, 3024, 3024, 3024, 3024, 3024, 3024, 3024, 3024, 3024, 3024, 3024"
*.rsu[0].nic.aribT109Mac.baseStationTransmissionPeriodStarts = "0,0,0,0,0,0,0,0,0,0,0,0,0,0,0,0"
*.rsu[*].nic.aribT109Mac.maxRsuTxLength = 16*3024us
**.aribT109Mac.headerLength = 256 bit

*.**.nic.aribT109Mac.txPower = 10mW
*.**.nic.aribT109Mac.bitrate = 6Mbps
**.nic.**.bitrate = 6Mbps
*.**.nic.aribT109Mac.ccaThreshold = -53dBm

*.**.nic.phy80211p.sensitivity = -89dBm

*.**.nic.phy80211p.useThermalNoise = true
*.**.nic.phy80211p.thermalNoise = -110dBm
*.**.nic.phy80211p.decider = xmldoc("config-arib.xml")
*.**.nic.phy80211p.analogueModels = xmldoc("config-arib.xml")
*.**.nic.phy80211p.usePropagationDelay = true

*.**.nic.phy80211p.antenna = xmldoc("antenna.xml", "/root/Antenna[@id='monopole']")

##########################################################
#                    WaveAppLayer                        #
##########################################################
*.node[*].applType = "TraCIDemo11p"
*.node[*].appl.headerLength = 80 bit
*.node[*].appl.sendBeacons = true
*.node[*].appl.dataOnSch = false
*.node[*].appl.beaconInterval = 1s

##########################################################
#                      Mobility                          #
##########################################################
*.node[*].veinsmobilityType.debug = true
*.node[*].veinsmobility.x = 0
*.node[*].veinsmobility.y = 0
*.node[*].veinsmobility.z = 1.895
*.node[*0].veinsmobility.accidentCount = 1
*.node[*0].veinsmobility.accidentStart = 75s
*.node[*0].veinsmobility.accidentDuration = 50s

[Config nodebug]
description = "default settings"
**.debug = false
**.coreDebug = false
*.annotations.draw = false

[Config debug]
description = "(very slow!) draw and print additional debug information"
**.debug = true
**.coreDebug = true
*.annotations.draw = true

