[General]
;ini-warnings = true
network = sim
#random-seed = 13
sim-time-limit = 50s

[Tkenv]
bitmap-path="../../bitmaps"
default-run=1
use-mainwindow = yes
print-banners = yes
slowexec-delay = 300ms
update-freq-fast = 10
update-freq-express = 100
breakpoints-enabled = yes

[Cmdenv]
runs-to-execute = 1
event-banners = no
module-messages = no
; verbose-snrSimulation = no
; verbose-snrSimulation = yes

[DisplayStrings]


[Parameters]



##############################################################################
#       Parameters for the entire simulation                                 #
##############################################################################
sim.playgroundSizeX = 500
sim.playgroundSizeY = 350
sim.numHosts = 2

# uncomment to enable debug messages for all modules
; **.debug = 0
**.coreDebug = 0


##############################################################################
#       Parameters for the ChannelControl                                    #
##############################################################################
sim.channelcontrol.carrierFrequency = 868e+6

# max transmission power [mW]
sim.channelcontrol.pMax  = 3
# signal attenuation threshold [dBm]
sim.channelcontrol.sat   = -110
# path loss coefficient alpha
sim.channelcontrol.alpha = 3.5

sim.channelcontrol.sendDirect = 0
sim.channelcontrol.useTorus = 0


##############################################################################
#       Parameters for the Mobility Module                                   #
##############################################################################
# starting position for the hosts "-1" means random staring point

sim.host[0].mobility.x = 100
sim.host[0].mobility.y = 100

sim.host[1].mobility.x = 290
sim.host[1].mobility.y = 160

sim.host[2].mobility.x = 420
sim.host[2].mobility.y = 120

sim.host[3].mobility.x = 380
sim.host[3].mobility.y = 30

sim.host[4].mobility.x = 220
sim.host[4].mobility.y = 60

sim.host[5].mobility.x = 450
sim.host[5].mobility.y = 320

sim.host[6].mobility.x = 150
sim.host[6].mobility.y = 155

sim.host[7].mobility.x = 330
sim.host[7].mobility.y = 280

sim.host[8].mobility.x = 70
sim.host[8].mobility.y = 257

sim.host[9].mobility.x = 150
sim.host[9].mobility.y = 300

sim.host[*].mobility.x=-1
sim.host[*].mobility.y=-1


##############################################################################
#       Parameters for the Host                                              #
##############################################################################

##############################################################################
#       Parameters for the Application Layer                                 #
##############################################################################

# debug switch
sim.host[*].appl.debug = 1
sim.host[*].appl.headerLength=12
sim.host[*].appl.burstSize=3


##############################################################################
#       Parameters for the Network Layer                                     #
##############################################################################
sim.host[*].net.headerLength=24
sim.host[*].net.debug = 0
sim.host[*].net.coreDebug = 0

##############################################################################
#       Parameters for ARP
##############################################################################
sim.host[*].arp.debug = 0


##############################################################################
#       Parameters for the MAC Layer                                         #
##############################################################################

sim.host[*].nic.mac.debug=1
sim.host[*].nic.mac.queueLength=5
sim.host[*].nic.mac.headerLength=24
sim.host[*].nic.mac.busyRSSI=-105
sim.host[*].nic.mac.slotDuration=0.01
sim.host[*].nic.mac.difs=0.006
sim.host[*].nic.mac.maxTxAttempts=14
sim.host[*].nic.mac.defaultChannel = 0
sim.host[*].nic.mac.bitrate = 15360
sim.host[*].nic.mac.contentionWindow = 31


##############################################################################
#       Parameters for the radio
##############################################################################

sim.host[*].nic.radio.swSleep=0
sim.host[*].nic.radio.swSend=0.001
sim.host[*].nic.radio.swRecv=0.003
sim.host[*].nic.radio.debug=0


##############################################################################
#       Parameters for the Physical Layer                                    #
##############################################################################

# debug switch
sim.host[*].nic.snrEval.debug = 1
sim.host[*].nic.snrEval.publishRSSIAlways = 0
sim.host[*].nic.snrEval.headerLength=0
# transmission power [mW]
sim.host[*].nic.snrEval.transmitterPower=3

sim.host[*].nic.snrEval.carrierFrequency=868E+6
sim.host[*].nic.snrEval.thermalNoise=-110
sim.host[*].nic.snrEval.sensitivity=-105
sim.host[*].nic.snrEval.pathLossAlpha=3.5

sim.host[*].nic.decider.debug = 1
sim.host[*].nic.decider.snrThresholdLevel=5;[dB]

