<?xml version="1.0" encoding="UTF-8"?>
<!-- generated on Tue Jul 16 11:51:10 2013 by SUMO duarouter Version 0.17.1
<?xml version="1.0" encoding="UTF-8"?>

<configuration xmlns:xsi="http://www.w3.org/2001/XMLSchema-instance" xsi:noNamespaceSchemaLocation="http://sumo.sf.net/xsd/duarouterConfiguration.xsd">

    <input>
        <net-file value="erlangen.net.xml"/>
        <alternative-files value="trips_048.rou.alt.xml"/>
        <weight-files value="dump_048_900.xml"/>
    </input>

    <output>
        <output-file value="trips_049.rou.xml"/>
        <vtype-output value=""/>
        <exit-times value="false"/>
    </output>

    <processing>
        <ignore-errors value="true"/>
        <max-alternatives value="5"/>
        <with-taz value="false"/>
        <routing-algorithm value="dijkstra"/>
        <gawron.beta value="0.9"/>
        <gawron.a value="0.5"/>
        <keep-all-routes value="false"/>
        <logit value="false"/>
        <logit.beta value="0.15"/>
        <logit.gamma value="1"/>
    </processing>

    <time>
        <begin value="0"/>
    </time>

    <report>
        <verbose value="false"/>
        <no-warnings value="false"/>
        <no-step-log value="true"/>
    </report>

    <random_number>
        <random value="false"/>
    </random_number>

</configuration>
-->
<routes xmlns:xsi="http://www.w3.org/2001/XMLSchema-instance" xsi:noNamespaceSchemaLocation="http://sumo.sf.net/xsd/routes_file.xsd">
  <route id="route1" edges="-23350930 23350930 4900041#3 4900041#0 -4900043 -4006702#1 -4006702#0 -3013106#2 -3013106#1 -3013106#0 -3998612#2 3998612#2"/>
  <route id="route2" edges="67076129 -67076129 -94344940#0 28768072 -28613737 -4006702#0 -3013106#2 3998615#0 3998615#1 3998615#2"/>
  <route id="route3" edges="-25398494#0 -31401017#2 -31401017#1 4006688#0 4006688#1 4006688#2 4006688#3 4006688#4 29900561#0 29900561#1 32270595 33174302#0 33174302#1 4686970#0"/>
  <route id="route4" edges="-94344940#3 -94344940#2 -94344940#0 28768072 -28613737 -4006702#0 4319352#1 44069041#0 44069041#1 25472079 30405352 30350445 -33174302#1 -33174302#0 -32270595 -29900561#1 -29900561#0 -4006688#4 -4006688#3 -4006688#2 -4006688#1 -4006688#0 -31401017#0 -29900567"/>
  <route id="route5" edges="-31241853#2 31241853#2 31241851#2 -31255203#0 -4006702#0 4319352#1 44069041#0 44069041#1 4400949 31982182#0"/>
  <route id="route6" edges="-39539626 -5445204#2 -5445204#1 113939244#2 -126606716 23339459 30405358#1 85355912 85355911#0 85355911#1 30405356 5931612 30350450#0 30350450#1 30350450#2 4006702#0 31255203#0 -31241851#2 -31241853#2 31241838#1"/>
  <route id="route7" edges="-32302591#4 32302591#4 32302591#5 33174302#0 33174302#1 4686970#0 4686970#1 122161381 30350448 30350449 4047309 30751813 -35842306#1 -35842306#0 -4900741 -4900739#2"/>
  <route id="route8" edges="-4099270#0 4006726#2 -3998645#0 -4006725#1 -4006725#0"/>
  <route id="route9" edges="-4006725#1 -4872369 4006724#2 3998643#0 -4006726#0 3998615#1"/>
  <route id="route10" edges="-4006674#1 4006674#1 -4006683"/>
  <route id="route11" edges="4006701 -4006701 -4006702#2 -4006702#1 28613737 94344941 94344940#0 94344940#2 -54105725"/>
  <route id="route12" edges="-31241816#0 31241816#0 -31241838#1 -31241838#0 -31255203#1 -31255203#0 -4006702#0 4319352#1 44069041#0 44069041#1 4047309 30751813 -35842306#1 26188722 -26188722"/>
  <route id="route13" edges="4006676 -4006676 32302591#4 32302591#5 33174302#0 33174302#1 4686970#0 4686970#1 122161381 30350448 8364476 30350450#0 30350450#1 30350450#2 -3013106#2 -3013106#1"/>
  <route id="route14" edges="30405356 4047309 30751813 -35842306#1 -35842306#0 -4900741"/>
  <route id="route15" edges="28768072 -28613737 -4006702#0 4319352#1 44069041#0 44069041#1 4047309 30751813"/>
  <route id="route16" edges="31777493#0 31777493#1 35842306#0 35842306#1 4047446#0 4047446#1 25472079 30405352 30350445 -33174302#1 -33174302#0 -32270595 -29900561#1 -29900561#0 -4006688#4 -4006688#3 -4006688#2 -4006688#1 -4006688#0 -31401017#0 -29900567 -31401018 31401018"/>
  <route id="route17" edges="-4006683 -32302591#1 -32302591#0 4006672 32270593 32270592#0 -4006675"/>
  <route id="route18" edges="4006674#4 8403001 29900564#0 29900564#1 29900564#2 29900564#3 29900564#4 29900564#5 -4006690 --5558 -5558"/>
  <route id="route19" edges="-4047532 -32270592#1 -32270592#0 -32270593 4006674#0 4006674#1 4006674#2 4006674#3 4006674#4 8403001 29900561#0 29900561#1 32270595 33174302#0 33174302#1 4686970#0 4686970#1 122161381 30350448 30350449 4400949"/>
  <route id="route20" edges="3998643#0 -3998643#0 -3998612#1 -3998612#0 3998613#0 3998613#1 3998613#2 -31353573#1 4006673 -32302591#4 -32302591#3 -4006684"/>
  <route id="route21" edges="126606716 -126606716 23339459 30405358#1 85355912 85355911#0 85355911#1 30405356 5931612 30350450#0 30350450#1 30350450#2 4006702#0 31255203#0 31255203#1"/>
  <route id="route22" edges="-31241855#1 -31241855#0 -31241834#1 31241848 31241851#0 31241851#1 31241851#2 -31255203#0 -4006702#0 4319352#1 44069041#0 44069041#1 25472079 30405352 30350445 -33174302#1 -33174302#0 -32270595 -29900561#1 -29900561#0 -8403001 -4006674#4 -4006674#3 -4006674#2 -4006674#1"/>
  <route id="route23" edges="8402997 -8402997 32270595 33174302#0 33174302#1 4686970#0 4686970#1 122161381 30350448 30350449 4047309 30751813 -35842306#1 35842306#1"/>
  <route id="route24" edges="-31270441 31777493#1 35842306#0 35842306#1 4047446#0 4047446#1"/>
  <route id="route25" edges="4047378 -4047378 10573414#1 3013106#0 3013106#1 3013106#2 4006702#0 31255203#0 -31241851#2 -31241851#1 31241851#1"/>
  <route id="route26" edges="30405358#1 85355912 85355911#0 85355911#1 30405356 25472079 30405352 30350445 -33174302#1 4006689 -29900565#1 -29900565#0 -4006690 -4006693#4 -4006693#3 4006693#3"/>
  <route id="route27" edges="25472101 30405352 19796637 122161381 30350448 30350449 4400949 31982182#0 4047241 4797872 4797871 4006668 23339459 30405358#1 85355912 85355911#0 85355911#1"/>
  <route id="route28" edges="15259223 4006668 23339459 30405358#1 85355912 85355911#0 85355911#1 30405356 5931612 30350450#0 30350450#1 30350450#2 4006702#0 31255203#0 31255203#1 31241838#0"/>
  <route id="route29" edges="-23570844#2 -5445204#3 -5445204#2 -5445204#1 5445204#1"/>
  <route id="route30" edges="113939242#1 113939244#1 113939244#2 -126606716 23339459 30405358#1 85355912 85355911#0 85355911#1 30405356 5931612 30350450#0 30350450#1 30350450#2 4006702#0 31255203#0 -31241851#2 -31241851#1 -31241851#0 -31241816#1 -31241816#0 31241816#0"/>
  <route id="route31" edges="29900564#4 -29900564#4 -29900564#3 -29900564#2 -29900564#1 -8402998#2 -8402998#1 -8402997 32270595 33174302#0 33174302#1 4686970#0 4686970#1 122161381 30350448 8364476 30350450#0 30350450#1 30350450#2 4006702#0 4006702#1"/>
  <route id="route32" edges="3998612#2 3013106#0 3013106#1 3013106#2 4006702#0 4006702#1 4006702#2 -28269598 -4006703#1 4006705#1 4006705#2 31720632#0 31720632#1 -31720632#1"/>
  <route id="route33" edges="-3998615#0 3013106#2 4006702#0 4006702#1 4006702#2 4006701"/>
  <route id="route34" edges="-31255203#1 -31255203#0 -4006702#0 4319352#1 44069041#0 44069041#1 25472079 30405352 30350445 -33174302#1 -33174302#0 -32302591#5 -32302591#4 32302591#4"/>
  <route id="route35" edges="-29900561#1 -29900561#0 -8403001 -4006674#4 -4006674#3 -4006674#2 -4006674#1 -4006674#0 32270593 32270592#0 -32270592#0"/>
  <route id="route36" edges="-4900739#1 4900739#1 4900739#2 4900741 35842306#0 35842306#1 4047446#0 4047446#1 25472079 30405352 30350445 -33174302#1 -33174302#0 -32270595 -29900561#1 -29900561#0 -8403001 -4006674#4 -4006674#3 -4006674#2 -4006674#1 -4006674#0 32270593 32270592#0"/>
  <route id="route37" edges="3998613#0 3998613#1 3998613#2 -31353573#1 -31353573#0 -33174302#1 -33174302#0 -32270595 -29900561#1 -29900561#0 -4006688#4 -4006688#3 -4006688#2 -4006688#1 10712011 -10712011"/>
  <route id="route38" edges="-4006726#0 -3998615#0 3013106#2 4006702#0 28613737 94344941 94344940#0 -28613727#1 28631632"/>
  <route id="route39" edges="-31353573#0 4686970#0 4686970#1 122161381 30350448 8364476 30350450#0 30350450#1 30350450#2 4006702#0 31255203#0 -31241851#2 -31241853#2 -31241853#1 -31241853#0 31241853#0"/>
  <route id="route40" edges="-4006701 -4006702#2 -4006702#1 -4006702#0 4319352#1 44069041#0 44069041#1 4400949 31982182#0 4047241 4797872 4797871 4006668 126606716 113939242#0 5445204#1 5445204#2"/>
  <route id="route41" edges="32270593 -32270593 4006674#0 4006674#1 4006674#2 4006674#3 4006674#4 8403001 29900564#0 29900564#1 29900564#2 29900564#3 -10425128#1 -10425128#0 4006693#3"/>
  <route id="route42" edges="-29900564#2 -29900564#1 -29900564#0 29900561#0 29900561#1 32270595 33174302#0 33174302#1 4686970#0 4686970#1 122161381 30350448 8364476 30350450#0 30350450#1 30350450#2 4006702#0"/>
  <route id="route43" edges="-4006726#0 -3998615#0 3013106#2 4319352#1 44069041#0 44069041#1 25472079 30405352 30350445 -33174302#1 -33174302#0 -32270595 -29900561#1 -29900561#0 -8403001 -4006674#4 -4006674#3 -4006674#2 -4006683"/>
  <route id="route44" edges="3998613#2 -31353573#1 4006673 -32302591#4 -32302591#3 -32302591#2 -32302591#1 4006682 4006674#1"/>
  <route id="route45" edges="-4099309 4900741 35842306#0 35842306#1 4047446#0 4047446#1 25472079 30405352 19796637 122161390 -30357194 3998612#0 -4006725#1 4006725#1"/>
  <route id="route46" edges="8402997 -8402997 32270595 33174302#0 33174302#1 4686970#0 4686970#1 122161381 30350448 8364476 30350450#0 30350450#1 30350450#2 4006702#0 4006702#1 4006702#2 -28269598 -4006703#1 4006705#1 4006705#2"/>
  <route id="route47" edges="-23570844#2 -5445204#3 -5445204#2 -5445204#1 113939244#2 -126606716 23339459 30405358#1 85355912 85355911#0 85355911#1 30405356 5931612 30350450#0 30350450#1 30350450#2 4006702#0 28613737 94344941 94344940#0 -28613727#1"/>
  <route id="route48" edges="-31720632#1 -31720632#0 -4006705#2 4006705#2"/>
  <route id="route49" edges="-29900561#0 -4006688#4 -4006688#3 -4006688#2 10425130"/>
  <route id="route50" edges="-10425130 -4006688#1 -4006688#0 31401017#1 31401017#2 4006693#0 4006693#1 4006693#2 10425128#0"/>
  <route id="route51" edges="19796637 122161381 30350448 30350449 25472079 30405352 30350445 31353573#0 4006673"/>
  <route id="route52" edges="29900565#1 29900565#2 29900565#3 -32270595 -29900561#1 -29900561#0"/>
  <route id="route53" edges="41973977 -3998613#2 -3998613#1 -3998613#0 3998612#0 3998612#1 3998612#2 3013106#0 3013106#1 3013106#2 4006702#0 31255203#0 -31241851#2 -31241851#1 -31241851#0 31241816#3"/>
  <route id="route54" edges="4006674#4 4006687 32270595 33174302#0 33174302#1 4686970#0 25472257 25472299"/>
  <route id="route55" edges="-4006705#2 -4006705#1 4006703#1 28269598 -4006702#2 -4006702#1 -4006702#0 4319352#1 44069041#0 44069041#1 25472079 30405352 30350445 -33174302#1 -33174302#0 -32270595 8402997 8402998#1 8402998#2 29900564#1 29900564#2 -4006691"/>
  <route id="route56" edges="3998645#1 -3998645#1 -3998645#0 -4006725#1 -4872369 -4006724#1 -4047378 4047378"/>
  <route id="route57" edges="28613727#1 -94344940#0 28768072 -28613737 -4006702#0 4319352#1 44069041#0 44069041#1 25472079 30405352 30350445 -33174302#1 -33174302#0 -32270595 8402997 8402998#1 -9643180"/>
  <route id="route58" edges="10712011 -10712011 4006688#1 4006688#2 4006688#3 4006688#4 29900561#0 29900561#1 32270595 33174302#0 33174302#1 4686970#0 4686970#1 122161381 30350448 30350449 4400949 31982182#0 31982182#1"/>
  <route id="route59" edges="-31255203#1 -31255203#0 4006702#1 4006702#2 -28269598 -4006703#1 -4006703#0"/>
  <route id="route60" edges="-10573414#1 10573414#1 3013106#0 3013106#1 3013106#2 4006702#0 31255203#0 31255203#1 31241838#0 -31241853#1 -31241853#0 31241853#0"/>
  <route id="route61" edges="23605600#2 29900567 31401017#0 31401017#1 31401017#2 4006693#0 4006693#1 4006693#2 -4006693#2"/>
  <route id="route62" edges="4006668 23339459 30405358#1 85355912 85355911#0 85355911#1 30405356 25472079 30405352 30350445 -33174302#1 -33174302#0 -32270595 -29900561#1 -29900561#0 -8403001 -4006674#4 -4006674#3 -4006674#2 -4006674#1 -4006674#0"/>
  <route id="route63" edges="113939242#1 113939244#1 5445204#1 5445204#2 39539626"/>
  <route id="route64" edges="4006703#0 4006703#1 28269598 -4006702#2 -4006702#1 -4006702#0 4319352#1 44069041#0 44069041#1 25472079 30405352 19796637 122161390 -30357194"/>
  <route id="route65" edges="-4006693#2 -4006693#1 -23605595 -8403007 -29900564#1 -8402998#2 -8402998#1 -8402997 32270595 33174302#0 33174302#1 4686970#0 25472257 -30357194 3998612#0 3998612#1 3998612#2 3013106#0"/>
  <route id="route66" edges="4006693#2 -4006693#2 -4006693#1 -4006693#0 25398494#0 113939244#1 113939244#2 -126606716 23339459 30405358#1 85355912 85355911#0 85355911#1 30405356"/>
  <route id="route67" edges="113939244#1 113939244#2 -126606716 23339459 30405358#1 85355912 85355911#0 85355911#1 30405356 25472079 30405352 30350445 31353573#0 31353573#1 -41973977 -32271499 32271499"/>
  <route id="route68" edges="29900561#0 29900561#1 32270595 33174302#0 33174302#1 31353573#0 31353573#1 -41973977 -32271499"/>
  <route id="route69" edges="31241853#1 -31241838#0 -31255203#1 -31255203#0 -4006702#0 4319352#1 44069041#0 25472134 30751813 -35842306#1 -35842306#0 -4900741 -4900739#2 -4900739#1 -4900739#0"/>
  <route id="route70" edges="-3013107 3013107 3013106#1 3013106#2 4319352#1 44069041#0 44069041#1 25472079 30405352 30350445 -33174302#1 -33174302#0 -32270595 -4006687 -4006674#4 -4006674#3 -4006674#2 -4006674#1 -4006674#0 32270593 32270592#0 32270592#1"/>
  <route id="route71" edges="-4900043 -4006702#1 -4006702#0 4319352#1 44069041#0 44069041#1 25472079 30405352 30350445 -33174302#1 -33174302#0 -32302591#5 -32302591#4 -32302591#3 -32302591#2 -32302591#1 -32302591#0"/>
  <route id="route72" edges="-3998643#1 -4006726#0 -3998615#0 3013106#2 4006702#0 4006702#1 4006702#2 -28269598 -4006703#1 4006705#1 4006705#2 31720632#0 31720633"/>
  <route id="route73" edges="32270592#1 -32270592#1 -32270592#0 -32270593 4006674#0 4006674#1 4006674#2 4006674#3 4006674#4 8403001 29900561#0 29900561#1 32270595 33174302#0 33174302#1 4686970#0 25472257 -30357194 3998612#0 -4006725#1 -4872369 -4006724#1 4006724#1"/>
  <route id="route74" edges="-126606716 126606716 113939242#0 113939242#1 -25398494#0 -31401017#2 -31401017#1 -31401017#0 -29900567 -23605600#2 23605600#2"/>
  <route id="route75" edges="-23805514#0 23805514#0 23805514#1 -4006702#2 -4006702#1 -4006702#0 4319352#1 44069041#0 44069041#1 25472079 30405352 30350445 -33174302#1 -33174302#0 -32270595 8402997 8402998#1 8402998#2 29900564#1 8403007 -23341293"/>
  <route id="route76" edges="-10573414#1 10573414#1 3013106#0 3013106#1 3013106#2 4319352#1 44069041#0 44069041#1 25472079 30405352 30350445 -33174302#1 -33174302#0 -32270595 -4006687 -4006674#4 23605600#1 4006675"/>
  <route id="route77" edges="31255203#0 -31241851#2 -31241853#2 -31241853#1 -31241855#1"/>
  <route id="route78" edges="4006702#0 -4006702#0 -3013106#2 3998615#0 4006726#0 4006726#1 4006726#2 -3998645#0"/>
  <route id="route79" edges="32302591#3 32302591#4 32302591#5 -32270595 -29900561#1 -29900561#0 -8403001"/>
  <route id="route80" edges="5445204#1 -5445204#1 113939244#2 -126606716 23339459 30405358#1 85355912 85355911#0 85355911#1 30405356 5931612 30350450#0 30350450#1 30350450#2 4006702#0 4006702#1 4006702#2 -23805514#1 -32611578"/>
  <route id="route81" edges="-35842306#0 35842306#0 35842306#1 4047446#0 4047446#1 25472079 30405352 30350445 -33174302#1 -33174302#0 -32270595 8402997 8402998#1 8402998#2 29900564#1 -29900564#1"/>
  <route id="route82" edges="32271499 41973977 -3998613#2 -3998613#1 -3998613#0 3998612#0 -4006725#1 -4872369 -4006724#1 -4047378 4047378"/>
  <route id="route83" edges="31401018 29900567 31401017#0 4006688#0 4006688#1 4006688#2 4006688#3 4006688#4 29900561#0 29900561#1 32270595 33174302#0 33174302#1 4686970#0 4686970#1 122161381 30350448 8364476 30350450#0 30350450#1 30350450#2 4006702#0 28613737 94344941 94344940#0"/>
  <route id="route84" edges="-29900567 29900567 31401017#0 4006688#0 4006688#1 4006688#2 4006688#3 4006688#4 29900561#0 29900561#1 32270595 33174302#0 33174302#1 31353573#0 31353573#1"/>
  <route id="route85" edges="-4900043 -4006702#1 -4006702#0 4319353 4319349"/>
  <route id="route86" edges="-5445204#3 -5445204#2 -5445204#1 113939242#1 -25398494#0 -31401017#2 -31401017#1 -31401017#0 -29900567 -31401018 -4047532 4047532"/>
  <route id="route87" edges="31241838#0 -31241853#1 -31241855#1 -31241855#0 31241855#0"/>
  <route id="route88" edges="4872369 4006725#1 -3998612#0 3998613#0 3998613#1 3998613#2 -31353573#1 -31353573#0 -33174302#1 -33174302#0 -32270595 8402997"/>
  <route id="route89" edges="32302591#0 32302591#1 32302591#2 32302591#3 32302591#4 32302591#5 33174302#0 33174302#1 4686970#0 4686970#1 122161381 30350448 8364476 30350450#0 30350450#1 30350450#2 4006702#0 28613737 94344941 28768072"/>
  <route id="route90" edges="4006674#0 -4006682 32302591#1 32302591#2 32302591#3 32302591#4 32302591#5 33174302#0 33174302#1 4686970#0 4686970#1 122161390 -30357194 3998612#0 3998612#1 -4006724#2 -4006724#1 -4047378 10573414#1"/>
  <route id="route91" edges="4006726#1 4006726#2 -3998645#0 -3998612#0 30357194 25472299 30350448 8364476"/>
  <route id="route92" edges="28269598 -4006702#2 -4006702#1 -4006702#0 4319352#1 44069041#0 44069041#1 25472079 30405352 30350445 -33174302#1 4006689 -29900565#1 -29900565#0 -4006690"/>
  <route id="route93" edges="-31241853#1 31241853#1 -31241838#0 -31255203#1 -31255203#0 28613737 94344941 94344940#0 -28613727#1 -28613727#0 -28613734"/>
  <route id="route94" edges="-3998615#1 -3998615#0 3013106#2 4319352#1 44069041#0 44069041#1 4400949 31982182#0 4047241 4797872 4797871 4006668 126606716"/>
  <route id="route95" edges="-4006726#1 4006726#1 4006726#2 -3998645#0 -3998612#0 30357194 25472299 30350448 30350449 25472079 30405352 30350445 -33174302#1 -33174302#0 -32270595 8402997 8402998#1 8402998#2 -29900564#0"/>
  <route id="route96" edges="3013106#0 -3013106#0 -10573414#1 4047378 -4006724#0"/>
  <route id="route97" edges="-31255203#0 28613737 94344941 94344940#0 -28613727#1 -28613727#0"/>
  <route id="route98" edges="25472134 30751813 4047446#0 4047446#1 5931612 30350450#0 30350450#1 30350450#2 4006702#0 4006702#1 4006702#2 -28269598 -4006703#1 4006705#1"/>
</routes>
