[General]
network = sim
ned-path = ../../../src;../..
user-interface = Cmdenv

# cmdenv-runs-to-execute = 1
cmdenv-event-banners = false
cmdenv-module-messages = true 

output-scalar-precision = 6
output-vector-precision = 6

# by default, just record the primary time series
sim.host[*].batteryStats.capacity.vector-recording = true
sim.host[*].batteryStats.*.vector-recording = false


##############################################################################
#       Parameters for the entire simulation                                 #
##############################################################################
sim.playgroundSizeX = 200
sim.playgroundSizeY = 100
sim.numHosts = 1
**.debug = false
**.coreDebug = false

##############################################################################
#       Parameters for the Host                                              #
##############################################################################
sim.host[*].color = "white"
sim.host[*].appendDisplay = "b=20,20,oval;o=blue,black,2"
sim.host[*].blackboard.coreDebug = 0
sim.host[*].blackboard.debug = 0

# battery parameters
# 
sim.host[*].battery.debug = 0 
sim.host[*].battery.resolution = 0.1s
sim.host[*].battery.voltage = 3.0V
sim.host[*].battery.capacity = 1.0mAh
sim.host[*].battery.nominal = 1.0mAh

# publish to Stats every 5% change and every 1s (subject to resolution)
sim.host[*].battery.publishDelta = 0.05
sim.host[*].battery.publishTime = 1s

sim.host[*].batteryStats.debug = 0# 	

# device is the two-phase DutyCycle device (account0 is 4x account1)
# draw .5A for 200ms, off 300ms, draw 1A for 400ms, off 100ms, wakeup 60mWs
sim.host[*].device.debug = 0
sim.host[*].device.period = 1.0s
sim.host[*].device.dutyCycle0 = 0.2
sim.host[*].device.current0 = 500.0
sim.host[*].device.gap = 0.3
sim.host[*].device.dutyCycle1 = 0.4
sim.host[*].device.current1 = 1000.0
sim.host[*].device.wakeup = 60

[Config One]
sim.host[*].batteryStats.detail = true	
sim.host[*].batteryStats.timeSeries = true	
output-vector-file = omnetpp_1.vec
sim-time-limit = 5s

[Config Two]
sim.host[*].batteryStats.detail = true	
sim.host[*].batteryStats.timeSeries = true
output-vector-file = omnetpp_2.vec
sim-time-limit = 15s
