[General]
network = Mac80211
#random-seed = 13
cmdenv-express-mode = true
ned-path = ../../src;..
record-eventlog = false
sim-time-limit = 5000s

#bitmap-path = "../../bitmaps"
# tkenv-default-run = 1
#breakpoints-enabled = true
tkenv-default-config = 

# cmdenv-runs-to-execute = 1
cmdenv-event-banners = true
cmdenv-module-messages = true






##############################################################################
#       Parameters for the entire simulation                                 #
##############################################################################

**.playgroundSizeX = 500m
**.playgroundSizeY = 500m
**.playgroundSizeZ = 50m
**.numHosts = 10

# uncomment to enable debug messages for all modules
# **.debug = 0
**.coreDebug = true
**.debug = true


#######
# Annotation parameters
#######

*.annotations.draw = true


#######
# Obstacle parameters
#######

*.obstacles.debug = true
*.obstacles.obstacles = xmldoc("test.obstacles.xml")


##########################################################
#			WorldUtility parameters                      #
##########################################################
**.world.useTorus = false

##############################################################################
#       Parameters for the ConnectionManager                                 #
##############################################################################
**.connectionManager.carrierFrequency = 2.4e+9Hz  # [Hz]

# max transmission power [mW]
**.connectionManager.pMax = 110.11mW  # [mW]
# signal attenuation threshold [dBm]
**.connectionManager.sat = -120dBm  # [dBm]
# path loss coefficient alpha
**.connectionManager.alpha = 4
**.connectionManager.sendDirect = false


##############################################################################
#       Parameters for the Mobility Module                                   #
##############################################################################

# debug switch

# if set to 0 the MN does not move
**.mobility.speed = 0mps
**.mobility.updateInterval = 0.5s

# starting position for the hosts "-1" means random staring point
# starting position for the hosts "-1" means random staring point
**.host[0].mobility.x = 30
**.host[0].mobility.y = 75

**.host[1].mobility.x = 290
**.host[1].mobility.y = 160

**.host[2].mobility.x = 420
**.host[2].mobility.y = 120

**.host[3].mobility.x = 380
**.host[3].mobility.y = 30

**.host[4].mobility.x = 220
**.host[4].mobility.y = 60

**.host[5].mobility.x = 450
**.host[5].mobility.y = 320

**.host[6].mobility.x = 150
**.host[6].mobility.y = 155

**.host[7].mobility.x = 330
**.host[7].mobility.y = 280

**.host[8].mobility.x = 70
**.host[8].mobility.y = 257

**.host[9].mobility.x = 150
**.host[9].mobility.y = 300

**.host[*].mobility.x = -1
**.host[*].mobility.y = -1
**.mobility.z = 0

##############################################################################
#       Parameters for the Host                                              #
##############################################################################

##############################################################################
#       Parameters for the Application Layer                                 #
##############################################################################

# debug switch
**.appl.headerLength = 1024bit
**.appl.burstSize = 3

##############################################################################
#       Parameters for the Network Layer                                     #
##############################################################################
**.netwl.headerLength = 32bit# in bits
**.netwl.stats = false

##############################################################################
#       Parameters for ARP
##############################################################################

##############################################################################
#       Parameters for the Mac Layer                                         #
##############################################################################

# debug switch
**.mac.headerLength = 272 bit
**.mac.queueLength = 14
**.mac.bitrate = 2E+6bps# in bits/second
**.mac.autoBitrate = false

### values if no fading is modelled, gives at most 1% packet error rate
**.mac.snr2Mbit = 1.46dB  # [dB]
**.mac.snr5Mbit = 2.6dB  # [dB]
**.mac.snr11Mbit = 5.68dB  # [dB]

**.mac.rtsCtsThreshold = 400
**.mac.neighborhoodCacheSize = 30
**.mac.neighborhoodCacheMaxAge = 100s  # [s]

**.mac.txPower = 110.11mW  # [mW]

##############################################################################
#       Parameters for the Phy                                               #
##############################################################################

**.phy.usePropagationDelay = false
**.phy.thermalNoise = -110dBm  # [dBm]
**.phy.analogueModels = xmldoc("config.xml")
**.phy.decider = xmldoc("config.xml")
**.phy.sensitivity = -119.5dBm  # [dBm]
**.phy.maxTXPower = 110.11mW
**.phy.initialRadioState = 0

**.phy.useThermalNoise = true



[Config HiddenStation]
description = "Host configuration of the hidden station scneario"
**.numHosts = 3
**.playgroundSizeX = 500m
**.playgroundSizeY = 500m

**.host[0].mobility.x = 30
**.host[0].mobility.y = 100

**.host[1].mobility.x = 230
**.host[1].mobility.y = 100

**.host[2].mobility.x = 420
**.host[2].mobility.y = 100
