[General]
preload-ned-files = *.ned ../../include/*.ned

ini-warnings = true
network = sim
sim-time-limit = 50s

[Cmdenv]
runs-to-execute = 1
event-banners = no
module-messages = yes 

[DisplayStrings]


[Parameters]



##############################################################################
#       Parameters for the entire simulation                                 #
##############################################################################
sim.playgroundSizeX = 200
sim.playgroundSizeY = 100
sim.playgroundSizeZ = 0
sim.numHosts = 1
**.debug = 1
**.coreDebug = 1

sim.world.useTorus = 0
sim.world.use2D = 1

##############################################################################
#       Parameters for the ChannelControl                                    #
##############################################################################
sim.channelcontrol.carrierFrequency = 868e+6

# max transmission power [mW]
sim.channelcontrol.pMax  = 2
# signal attenuation threshold [dBm]
sim.channelcontrol.sat   = -110
# path loss coefficient alpha
sim.channelcontrol.alpha = 3.5


##############################################################################
#       Parameters for the Mobility Module                                   #
##############################################################################
# if set to 0 the MN does not move
sim.node[*].mobility.updateInterval = 0.5
sim.node[*].mobility.vHost          = 0

sim.node[*].StateView.debug = 1
sim.node[*].StateChanger.debug = 1

##############################################################################
#       Parameters for the Host                                              #
##############################################################################
sim.node[*].color = "white"
sim.node[*].appendDisplay = "b=20,20,oval;o=blue,black,2"
sim.node[*].blackboard.coreDebug = 1;
sim.node[*].blackboard.debug = 1;

# starting position for the hosts "-1" means random staring point
sim.node[*].blackboard.x = 10
sim.node[*].blackboard.y = 10
sim.node[*].blackboard.z = 0

##############################################################################
#       Parameters for the Physical Layer                                    #
##############################################################################
sim.node[*].phy.headerLength=16
sim.node[*].phy.bitrate=10000
sim.node[*].phy.transmitterPower=2; always in mW

