[General]
cmdenv-config-name = Test1
ned-path = ../../src;..

network = bmSim
sim-time-limit = 50s

cmdenv-express-mode = false

##############################################################################
#       Parameters for the entire simulation                                 #
##############################################################################
bmSim.playgroundSizeX = 120m
bmSim.playgroundSizeY = 120m
bmSim.playgroundSizeZ = 120m
# bmSim.numHosts = 1




**.coreDebug = false



##############################################################################
#       Parameters for the Host                                              #
##############################################################################

# bmSim.node[*].mobility.x = 0
# bmSim.node[*].mobility.y = 0
# bmSim.node[*].mobility.z = 0









###############################################################################
#                 Configuration for Run 1                                     #
###############################################################################
[Config Test1]

bmSim.world.useTorus = false
bmSim.world.use2D = false
# bmSim.playgroundSizeZ = 120
bmSim.numHosts = 1

bmSim.node[0].mobility.x = 60
bmSim.node[0].mobility.y = 60
bmSim.node[0].mobility.z = 60
bmSim.node[0].borderPolicy = 1

bmSim.node[0].mobility.outX = 150
bmSim.node[0].mobility.outY = 150
bmSim.node[0].mobility.outZ = 150

bmSim.node2[0].mobility.debug = false
bmSim.node2[0].mobility.updateInterval = 0.5
bmSim.node2[0].mobility.speed = 20.0
bmSim.node2[0].borderPolicy = 1


