[General]
;ini-warnings = true
network = bmSim
sim-time-limit = 50s

[Tkenv]
bitmap-path="..\..\bitmaps"
default-run=1
use-mainwindow = yes
print-banners = yes
slowexec-delay = 300ms
update-freq-fast = 10
update-freq-express = 100
breakpoints-enabled = yes

[Cmdenv]
# runs-to-execute = 1, 2, 3, 4
runs-to-execute = 1
event-banners = no
module-messages = yes

[DisplayStrings]

###############################################################################
#                 Configuration for Run 1                                     #
###############################################################################
[Run 1]

bmSim.world.useTorus = 0
bmSim.world.use2D = 0
# bmSim.playgroundSizeZ = 120
bmSim.numHosts = 1


# bmSim.node[0].phyLayer = "ConnectedBCNodePhyLayer"
bmSim.node[0].mobility.x = 60
bmSim.node[0].mobility.y = 60
bmSim.node[0].mobility.z = 60
bmSim.node[0].borderPolicy = 1

bmSim.node[0].mobility.outX = 150
bmSim.node[0].mobility.outY = 150
bmSim.node[0].mobility.outZ = 150

bmSim.node2[0].mobility.debug = 0
bmSim.node2[0].mobility.updateInterval = 0.5
bmSim.node2[0].mobility.speed          = 20.0
bmSim.node2[0].borderPolicy = 1






[Parameters]
##############################################################################
#       Parameters for the entire simulation                                 #
##############################################################################
bmSim.playgroundSizeX = 120
bmSim.playgroundSizeY = 120
bmSim.playgroundSizeZ = 120
# bmSim.numHosts = 1




**.coreDebug = 0






##############################################################################
#       Parameters for the Host                                              #
##############################################################################

# bmSim.node[*].mobility.x = 0
# bmSim.node[*].mobility.y = 0
# bmSim.node[*].mobility.z = 0

