<?xml version="1.0" encoding="UTF-8"?>

<!-- generated on Tue Apr 17 08:38:34 2018 by SUMO netconvert Version 0.30.0
<?xml version="1.0" encoding="UTF-8"?>

<configuration xmlns:xsi="http://www.w3.org/2001/XMLSchema-instance" xsi:noNamespaceSchemaLocation="http://sumo.dlr.de/xsd/netconvertConfiguration.xsd">

    <input>
        <type-files value="/home/joseph/Projects/ConfidenceRange/Programs/osm2sumo/typemap/Netconvert.typ.xml"/>
        <osm-files value="IRTSystemX_bbox.osm.xml"/>
    </input>

    <output>
        <output-file value="/home/joseph/Projects/ConfidenceRange/Programs/osm2sumo/IRTSystemX/IRTSystemX.net.xml"/>
    </output>

    <projection>
        <proj.utm value="true"/>
    </projection>

    <ramp_guessing>
        <ramps.guess value="true"/>
    </ramp_guessing>

</configuration>
-->

<net version="0.27" xmlns:xsi="http://www.w3.org/2001/XMLSchema-instance" xsi:noNamespaceSchemaLocation="http://sumo.dlr.de/xsd/net_file.xsd">

    <location netOffset="-439116.92,-5395387.71" convBoundary="0.00,0.00,3275.45,1362.34" origBoundary="2.172298,48.708669,2.217279,48.722256" projParameter="+proj=utm +zone=31 +ellps=WGS84 +datum=WGS84 +units=m +no_defs"/>

    <type id="highway.bridleway" priority="1" numLanes="1" speed="2.78" allow="pedestrian" oneway="1" width="2.00"/>
    <type id="highway.bus_guideway" priority="1" numLanes="1" speed="8.33" allow="bus" oneway="1"/>
    <type id="highway.cycleway" priority="1" numLanes="1" speed="5.56" allow="bicycle" oneway="0" width="1.00"/>
    <type id="highway.footway" priority="1" numLanes="1" speed="8.33" allow="pedestrian" oneway="1" width="2.00"/>
    <type id="highway.ford" priority="1" numLanes="1" speed="2.78" allow="army" oneway="0"/>
    <type id="highway.living_street" priority="3" numLanes="1" speed="2.78" disallow="tram rail_urban rail rail_electric ship" oneway="0"/>
    <type id="highway.motorway" priority="13" numLanes="2" speed="44.44" allow="private emergency authority army vip passenger hov taxi bus coach delivery truck trailer motorcycle evehicle custom1 custom2" oneway="1"/>
    <type id="highway.motorway_link" priority="12" numLanes="1" speed="22.22" allow="private emergency authority army vip passenger hov taxi bus coach delivery truck trailer motorcycle evehicle custom1 custom2" oneway="1"/>
    <type id="highway.path" priority="1" numLanes="1" speed="2.78" allow="bicycle pedestrian" oneway="1" width="2.00"/>
    <type id="highway.pedestrian" priority="1" numLanes="1" speed="8.33" allow="pedestrian" oneway="1" width="2.00"/>
    <type id="highway.primary" priority="9" numLanes="2" speed="27.78" disallow="tram rail_urban rail rail_electric ship" oneway="0"/>
    <type id="highway.primary_link" priority="8" numLanes="1" speed="22.22" disallow="tram rail_urban rail rail_electric ship" oneway="0"/>
    <type id="highway.raceway" priority="14" numLanes="2" speed="83.33" allow="vip" oneway="0"/>
    <type id="highway.residential" priority="4" numLanes="1" speed="13.89" disallow="tram rail_urban rail rail_electric ship" oneway="0"/>
    <type id="highway.secondary" priority="7" numLanes="2" speed="27.78" disallow="tram rail_urban rail rail_electric ship" oneway="0"/>
    <type id="highway.secondary_link" priority="6" numLanes="1" speed="22.22" disallow="tram rail_urban rail rail_electric ship" oneway="0"/>
    <type id="highway.service" priority="2" numLanes="1" speed="5.56" allow="delivery bicycle pedestrian" oneway="0"/>
    <type id="highway.services" priority="1" numLanes="1" speed="8.33" disallow="tram rail_urban rail rail_electric ship" oneway="0"/>
    <type id="highway.stairs" priority="1" numLanes="1" speed="1.39" allow="pedestrian" oneway="1" width="2.00"/>
    <type id="highway.step" priority="1" numLanes="1" speed="1.39" allow="pedestrian" oneway="1" width="2.00"/>
    <type id="highway.steps" priority="1" numLanes="1" speed="1.39" allow="pedestrian" oneway="1" width="2.00"/>
    <type id="highway.tertiary" priority="6" numLanes="1" speed="22.22" disallow="tram rail_urban rail rail_electric ship" oneway="0"/>
    <type id="highway.tertiary_link" priority="5" numLanes="1" speed="22.22" disallow="tram rail_urban rail rail_electric ship" oneway="0"/>
    <type id="highway.track" priority="1" numLanes="1" speed="5.56" disallow="tram rail_urban rail rail_electric ship" oneway="0"/>
    <type id="highway.trunk" priority="11" numLanes="2" speed="27.78" disallow="tram rail_urban rail rail_electric bicycle pedestrian ship" oneway="0"/>
    <type id="highway.trunk_link" priority="10" numLanes="1" speed="22.22" disallow="tram rail_urban rail rail_electric bicycle pedestrian ship" oneway="0"/>
    <type id="highway.unclassified" priority="5" numLanes="1" speed="13.89" disallow="tram rail_urban rail rail_electric ship" oneway="0"/>
    <type id="highway.unsurfaced" priority="1" numLanes="1" speed="8.33" disallow="tram rail_urban rail rail_electric ship" oneway="0"/>
    <type id="railway.light_rail" priority="15" numLanes="1" speed="27.78" allow="rail_urban" oneway="1"/>
    <type id="railway.preserved" priority="15" numLanes="1" speed="27.78" allow="rail" oneway="1"/>
    <type id="railway.rail" priority="15" numLanes="1" speed="83.33" allow="rail rail_electric" oneway="1"/>
    <type id="railway.subway" priority="15" numLanes="1" speed="27.78" allow="rail_urban" oneway="1"/>
    <type id="railway.tram" priority="15" numLanes="1" speed="13.89" allow="tram" oneway="1"/>

    <edge id=":1114038304_0" function="internal">
        <lane id=":1114038304_0_0" index="0" allow="delivery bicycle pedestrian" speed="5.56" length="0.31" shape="1405.12,409.64 1404.82,409.53"/>
    </edge>
    <edge id=":1114038304_1" function="internal">
        <lane id=":1114038304_1_0" index="0" allow="delivery bicycle pedestrian" speed="5.56" length="2.41" shape="1405.12,409.64 1404.24,408.44 1404.14,407.53"/>
    </edge>
    <edge id=":1114038304_4" function="internal">
        <lane id=":1114038304_4_0" index="0" speed="5.56" length="2.41" shape="1404.14,407.53 1404.81,406.89 1406.26,406.55"/>
    </edge>
    <edge id=":1114038304_2" function="internal">
        <lane id=":1114038304_2_0" index="0" allow="delivery bicycle pedestrian" speed="5.56" length="0.25" shape="1406.02,406.46 1406.26,406.55"/>
    </edge>
    <edge id=":1114038304_3" function="internal">
        <lane id=":1114038304_3_0" index="0" allow="delivery bicycle pedestrian" speed="5.56" length="2.41" shape="1406.02,406.46 1406.88,407.68 1406.96,408.59"/>
    </edge>
    <edge id=":1114038304_5" function="internal">
        <lane id=":1114038304_5_0" index="0" speed="5.56" length="2.41" shape="1406.96,408.59 1406.28,409.21 1404.82,409.53"/>
    </edge>
    <edge id=":1114038331_0" function="internal">
        <lane id=":1114038331_0_0" index="0" allow="delivery bicycle pedestrian" speed="5.56" length="0.31" shape="1217.80,1100.69 1217.49,1100.68"/>
    </edge>
    <edge id=":1114038331_1" function="internal">
        <lane id=":1114038331_1_0" index="0" disallow="tram rail_urban rail rail_electric ship" speed="5.56" length="2.41" shape="1217.80,1100.69 1216.58,1099.83 1216.19,1099.00"/>
    </edge>
    <edge id=":1114038331_4" function="internal">
        <lane id=":1114038331_4_0" index="0" speed="5.56" length="2.41" shape="1216.19,1099.00 1216.62,1098.18 1217.88,1097.39"/>
    </edge>
    <edge id=":1114038331_2" function="internal">
        <lane id=":1114038331_2_0" index="0" disallow="tram rail_urban rail rail_electric ship" speed="5.56" length="0.29" shape="1217.59,1097.38 1217.88,1097.39"/>
    </edge>
    <edge id=":1114038331_3" function="internal">
        <lane id=":1114038331_3_0" index="0" allow="delivery bicycle pedestrian" speed="5.56" length="2.41" shape="1217.59,1097.38 1218.80,1098.25 1219.19,1099.08"/>
    </edge>
    <edge id=":1114038331_5" function="internal">
        <lane id=":1114038331_5_0" index="0" speed="5.56" length="2.41" shape="1219.19,1099.08 1218.75,1099.89 1217.49,1100.68"/>
    </edge>
    <edge id=":1114038385_0" function="internal">
        <lane id=":1114038385_0_0" index="0" allow="bicycle" speed="4.17" length="4.07" width="1.00" shape="1408.31,415.68 1407.24,415.36 1406.32,415.46 1405.55,415.96 1404.93,416.87"/>
    </edge>
    <edge id=":1114038385_1" function="internal">
        <lane id=":1114038385_1_0" index="0" allow="bicycle" speed="4.17" length="4.25" width="1.00" shape="1408.31,415.68 1406.95,414.92 1406.21,414.17 1406.08,413.43 1406.58,412.70"/>
    </edge>
    <edge id=":1114038385_2" function="internal">
        <lane id=":1114038385_2_0" index="0" allow="bicycle" speed="5.56" length="4.17" width="1.00" shape="1407.32,413.51 1406.43,414.36 1405.89,415.02 1405.47,415.76 1404.93,416.87"/>
    </edge>
    <edge id=":1114038385_3" function="internal">
        <lane id=":1114038385_3_0" index="0" allow="bicycle" speed="5.56" length="0.17" width="1.00" shape="1407.32,413.51 1407.15,413.54"/>
    </edge>
    <edge id=":1114038385_6" function="internal">
        <lane id=":1114038385_6_0" index="0" speed="5.56" length="1.43" width="1.00" shape="1407.15,413.54 1406.83,413.59 1406.54,413.47 1406.46,413.18 1406.58,412.70"/>
    </edge>
    <edge id=":1114038385_4" function="internal">
        <lane id=":1114038385_4_0" index="0" allow="bicycle" speed="5.56" length="4.60" width="1.00" shape="1403.94,416.39 1404.53,415.17 1405.00,414.35 1405.60,413.63 1406.58,412.70"/>
    </edge>
    <edge id=":1114038385_5" function="internal">
        <lane id=":1114038385_5_0" index="0" allow="bicycle" speed="5.56" length="0.18" width="1.00" shape="1403.94,416.39 1404.09,416.30"/>
    </edge>
    <edge id=":1114038385_7" function="internal">
        <lane id=":1114038385_7_0" index="0" speed="5.56" length="1.43" width="1.00" shape="1404.09,416.30 1404.37,416.14 1404.67,416.14 1404.86,416.38 1404.93,416.87"/>
    </edge>
    <edge id=":1114113629_0" function="internal">
        <lane id=":1114113629_0_0" index="0" allow="delivery bicycle pedestrian" speed="5.56" length="7.32" shape="1160.65,398.96 1159.69,396.65 1158.64,394.97 1157.51,393.91 1156.30,393.47"/>
    </edge>
    <edge id=":1114113629_1" function="internal">
        <lane id=":1114113629_1_0" index="0" allow="delivery bicycle pedestrian" speed="5.56" length="12.94" shape="1160.65,398.96 1159.89,395.22 1160.65,392.68 1162.94,391.33 1166.75,391.19"/>
    </edge>
    <edge id=":1114113629_2" function="internal">
        <lane id=":1114113629_2_0" index="0" allow="delivery bicycle pedestrian" speed="5.56" length="4.82" shape="1160.65,398.96 1161.02,397.52 1161.66,396.85 1162.57,396.97 1163.76,397.86"/>
    </edge>
    <edge id=":1114113629_3" function="internal">
        <lane id=":1114113629_3_0" index="0" allow="delivery bicycle pedestrian" speed="5.56" length="5.65" shape="1166.42,394.47 1164.76,394.54 1163.76,395.12 1163.43,396.23 1163.76,397.86"/>
    </edge>
    <edge id=":1114113629_4" function="internal">
        <lane id=":1114113629_4_0" index="0" allow="delivery bicycle pedestrian" speed="5.56" length="10.18" shape="1166.42,394.47 1156.30,393.47"/>
    </edge>
    <edge id=":1114113629_5" function="internal">
        <lane id=":1114113629_5_0" index="0" allow="delivery bicycle pedestrian" speed="5.56" length="4.82" shape="1166.42,394.47 1165.27,393.53 1164.95,392.67 1165.44,391.89 1166.75,391.19"/>
    </edge>
    <edge id=":1114113629_6" function="internal">
        <lane id=":1114113629_6_0" index="0" allow="delivery bicycle pedestrian" speed="5.56" length="10.18" shape="1156.62,390.19 1166.75,391.19"/>
    </edge>
    <edge id=":1114113629_7" function="internal">
        <lane id=":1114113629_7_0" index="0" allow="delivery bicycle pedestrian" speed="5.56" length="11.05" shape="1156.62,390.19 1158.79,390.84 1160.71,392.33 1162.36,394.67 1163.76,397.86"/>
    </edge>
    <edge id=":1114113629_8" function="internal">
        <lane id=":1114113629_8_0" index="0" allow="delivery bicycle pedestrian" speed="5.56" length="4.82" shape="1156.62,390.19 1157.77,391.13 1158.10,391.99 1157.61,392.77 1156.30,393.47"/>
    </edge>
    <edge id=":1114113633_0" function="internal">
        <lane id=":1114113633_0_0" index="0" allow="delivery bicycle pedestrian" speed="5.56" length="8.55" shape="1442.43,377.21 1440.02,377.82 1438.24,377.74 1436.45,377.65 1434.04,378.25"/>
    </edge>
    <edge id=":1114113633_1" function="internal">
        <lane id=":1114113633_1_0" index="0" allow="delivery bicycle pedestrian" speed="5.56" length="12.49" shape="1442.43,377.21 1439.87,377.58 1438.05,376.31 1436.99,373.40 1436.68,368.83"/>
    </edge>
    <edge id=":1114113633_2" function="internal">
        <lane id=":1114113633_2_0" index="0" allow="delivery bicycle pedestrian" speed="5.56" length="5.24" shape="1442.43,377.21 1441.10,376.29 1440.67,375.38 1441.13,374.49 1442.50,373.62"/>
    </edge>
    <edge id=":1114113633_3" function="internal">
        <lane id=":1114113633_3_0" index="0" allow="delivery bicycle pedestrian" speed="5.56" length="5.18" shape="1439.96,370.31 1440.10,372.16 1440.57,373.32 1441.37,373.81 1442.50,373.62"/>
    </edge>
    <edge id=":1114113633_4" function="internal">
        <lane id=":1114113633_4_0" index="0" allow="delivery bicycle pedestrian" speed="5.56" length="10.55" shape="1439.96,370.31 1439.57,372.91 1438.45,375.09 1436.60,376.87 1434.04,378.25"/>
    </edge>
    <edge id=":1114113633_5" function="internal">
        <lane id=":1114113633_5_0" index="0" allow="delivery bicycle pedestrian" speed="5.56" length="5.26" shape="1439.96,370.31 1438.58,371.17 1437.58,371.21 1436.94,370.43 1436.68,368.83"/>
    </edge>
    <edge id=":1114113633_6" function="internal">
        <lane id=":1114113633_6_0" index="0" allow="delivery bicycle pedestrian" speed="5.56" length="7.92" shape="1432.81,375.18 1434.48,374.21 1435.68,372.83 1436.41,371.04 1436.68,368.83"/>
    </edge>
    <edge id=":1114113633_7" function="internal">
        <lane id=":1114113633_7_0" index="0" allow="delivery bicycle pedestrian" speed="5.56" length="9.89" shape="1432.81,375.18 1435.61,374.43 1437.66,374.41 1439.71,374.39 1442.50,373.62"/>
    </edge>
    <edge id=":1114113633_8" function="internal">
        <lane id=":1114113633_8_0" index="0" allow="delivery bicycle pedestrian" speed="5.56" length="4.82" shape="1432.81,375.18 1434.27,375.49 1434.96,376.10 1434.88,377.02 1434.04,378.25"/>
    </edge>
    <edge id=":1114113638_0" function="internal">
        <lane id=":1114113638_0_0" index="0" allow="delivery bicycle pedestrian" speed="5.56" length="4.82" shape="772.22,566.63 770.76,566.33 770.07,565.72 770.14,564.80 770.98,563.57"/>
    </edge>
    <edge id=":1114113652_0" function="internal">
        <lane id=":1114113652_0_0" index="0" allow="delivery bicycle pedestrian" speed="5.56" length="7.19" shape="1057.12,550.95 1055.48,549.68 1054.13,549.16 1052.62,548.93 1050.51,548.56"/>
    </edge>
    <edge id=":1114113652_1" function="internal">
        <lane id=":1114113652_1_0" index="0" allow="delivery bicycle pedestrian" speed="5.56" length="9.22" shape="1057.12,550.95 1055.39,548.99 1054.74,547.25 1054.63,545.26 1054.54,542.50"/>
    </edge>
    <edge id=":1114113652_2" function="internal">
        <lane id=":1114113652_2_0" index="0" allow="delivery bicycle pedestrian" speed="5.56" length="4.90" shape="1057.12,550.95 1057.04,549.44 1057.46,548.60 1058.39,548.43 1059.81,548.94"/>
    </edge>
    <edge id=":1114113652_3" function="internal">
        <lane id=":1114113652_3_0" index="0" allow="delivery bicycle pedestrian" speed="5.56" length="7.30" shape="1057.83,542.24 1057.89,544.43 1057.96,546.01 1058.46,547.39 1059.81,548.94"/>
    </edge>
    <edge id=":1114113652_4" function="internal">
        <lane id=":1114113652_4_0" index="0" allow="delivery bicycle pedestrian" speed="5.56" length="12.02" shape="1057.83,542.24 1057.61,545.69 1056.32,547.89 1053.95,548.85 1050.51,548.56"/>
    </edge>
    <edge id=":1114113652_5" function="internal">
        <lane id=":1114113652_5_0" index="0" allow="delivery bicycle pedestrian" speed="5.56" length="4.82" shape="1057.83,542.24 1057.11,543.54 1056.32,544.02 1055.46,543.67 1054.54,542.50"/>
    </edge>
    <edge id=":1114113652_6" function="internal">
        <lane id=":1114113652_6_0" index="0" allow="delivery bicycle pedestrian" speed="5.56" length="5.41" shape="1051.25,545.35 1052.80,545.48 1053.86,545.05 1054.44,544.05 1054.54,542.50"/>
    </edge>
    <edge id=":1114113652_7" function="internal">
        <lane id=":1114113652_7_0" index="0" allow="delivery bicycle pedestrian" speed="5.56" length="9.49" shape="1051.25,545.35 1054.01,545.90 1055.94,546.35 1057.67,547.20 1059.81,548.94"/>
    </edge>
    <edge id=":1114113652_8" function="internal">
        <lane id=":1114113652_8_0" index="0" allow="delivery bicycle pedestrian" speed="5.56" length="4.82" shape="1051.25,545.35 1052.27,546.43 1052.49,547.32 1051.90,548.04 1050.51,548.56"/>
    </edge>
    <edge id=":1114113658_0" function="internal">
        <lane id=":1114113658_0_0" index="0" allow="delivery bicycle pedestrian" speed="5.56" length="12.32" shape="1295.91,506.76 1283.88,509.39"/>
    </edge>
    <edge id=":1114113658_1" function="internal">
        <lane id=":1114113658_1_0" index="0" allow="delivery bicycle pedestrian" speed="5.56" length="13.30" shape="1295.91,506.76 1292.56,506.86 1289.65,505.84 1286.85,504.12 1283.87,502.13"/>
    </edge>
    <edge id=":1114113658_2" function="internal">
        <lane id=":1114113658_2_0" index="0" allow="delivery bicycle pedestrian" speed="5.56" length="4.82" shape="1295.91,506.76 1294.52,506.22 1293.95,505.50 1294.17,504.61 1295.21,503.54"/>
    </edge>
    <edge id=":1114113658_3" function="internal">
        <lane id=":1114113658_3_0" index="0" allow="delivery bicycle pedestrian" speed="5.56" length="10.96" shape="1285.62,499.33 1288.22,501.25 1290.17,502.82 1292.24,503.70 1295.21,503.54"/>
    </edge>
    <edge id=":1114113658_4" function="internal">
        <lane id=":1114113658_4_0" index="0" allow="delivery bicycle pedestrian" speed="5.56" length="16.70" shape="1285.62,499.33 1289.82,502.65 1290.93,505.43 1288.95,507.68 1283.88,509.39"/>
    </edge>
    <edge id=":1114113658_5" function="internal">
        <lane id=":1114113658_5_0" index="0" allow="delivery bicycle pedestrian" speed="5.56" length="4.82" shape="1285.62,499.33 1286.23,500.68 1286.14,501.60 1285.36,502.08 1283.87,502.13"/>
    </edge>
    <edge id=":1114113658_6" function="internal">
        <lane id=":1114113658_6_0" index="0" allow="delivery bicycle pedestrian" speed="5.56" length="6.70" shape="1283.17,506.16 1285.21,505.48 1286.00,504.58 1285.56,503.46 1283.87,502.13"/>
    </edge>
    <edge id=":1114113658_7" function="internal">
        <lane id=":1114113658_7_0" index="0" allow="delivery bicycle pedestrian" speed="5.56" length="12.32" shape="1283.17,506.16 1295.21,503.54"/>
    </edge>
    <edge id=":1114113658_8" function="internal">
        <lane id=":1114113658_8_0" index="0" allow="delivery bicycle pedestrian" speed="5.56" length="4.82" shape="1283.17,506.16 1284.56,506.71 1285.14,507.42 1284.91,508.32 1283.88,509.39"/>
    </edge>
    <edge id=":1114113667_0" function="internal">
        <lane id=":1114113667_0_0" index="0" allow="delivery bicycle pedestrian" speed="5.56" length="5.08" shape="788.62,563.39 787.89,562.18 786.96,561.48 785.83,561.29 784.51,561.61"/>
    </edge>
    <edge id=":1114113667_1" function="internal">
        <lane id=":1114113667_1_0" index="0" allow="delivery bicycle pedestrian" speed="5.56" length="10.42" shape="788.62,563.39 787.87,560.63 788.19,558.30 789.59,556.42 792.06,554.97"/>
    </edge>
    <edge id=":1114113667_2" function="internal">
        <lane id=":1114113667_2_0" index="0" allow="delivery bicycle pedestrian" speed="5.56" length="4.82" shape="788.62,563.39 788.89,561.93 789.48,561.22 790.40,561.27 791.65,562.08"/>
    </edge>
    <edge id=":1114113667_3" function="internal">
        <lane id=":1114113667_3_0" index="0" allow="delivery bicycle pedestrian" speed="5.56" length="5.02" shape="793.31,558.03 792.12,558.72 791.44,559.63 791.29,560.75 791.65,562.08"/>
    </edge>
    <edge id=":1114113667_4" function="internal">
        <lane id=":1114113667_4_0" index="0" allow="delivery bicycle pedestrian" speed="5.56" length="9.50" shape="793.31,558.03 784.51,561.61"/>
    </edge>
    <edge id=":1114113667_5" function="internal">
        <lane id=":1114113667_5_0" index="0" allow="delivery bicycle pedestrian" speed="5.56" length="4.82" shape="793.31,558.03 791.85,557.73 791.16,557.12 791.23,556.20 792.06,554.97"/>
    </edge>
    <edge id=":1114113667_6" function="internal">
        <lane id=":1114113667_6_0" index="0" allow="delivery bicycle pedestrian" speed="5.56" length="9.50" shape="783.26,558.56 792.06,554.97"/>
    </edge>
    <edge id=":1114113667_7" function="internal">
        <lane id=":1114113667_7_0" index="0" allow="delivery bicycle pedestrian" speed="5.56" length="10.33" shape="783.26,558.56 785.98,557.89 788.28,558.25 790.17,559.65 791.65,562.08"/>
    </edge>
    <edge id=":1114113667_8" function="internal">
        <lane id=":1114113667_8_0" index="0" allow="delivery bicycle pedestrian" speed="5.56" length="4.82" shape="783.26,558.56 784.72,558.85 785.42,559.46 785.35,560.38 784.51,561.61"/>
    </edge>
    <edge id=":1114113699_0" function="internal">
        <lane id=":1114113699_0_0" index="0" allow="delivery bicycle pedestrian" speed="5.56" length="4.82" shape="1225.70,467.17 1225.05,465.83 1225.11,464.91 1225.88,464.41 1227.37,464.32"/>
    </edge>
    <edge id=":1114113709_0" function="internal">
        <lane id=":1114113709_0_0" index="0" allow="delivery bicycle pedestrian" speed="5.56" length="4.82" shape="1382.61,354.20 1383.77,355.13 1384.10,355.99 1383.62,356.78 1382.31,357.48"/>
    </edge>
    <edge id=":1114113732_0" function="internal">
        <lane id=":1114113732_0_0" index="0" allow="delivery bicycle pedestrian" speed="5.56" length="4.82" shape="1305.03,473.97 1304.42,472.62 1304.51,471.70 1305.29,471.22 1306.78,471.17"/>
    </edge>
    <edge id=":1114113739_0" function="internal">
        <lane id=":1114113739_0_0" index="0" allow="delivery bicycle pedestrian" speed="5.56" length="4.82" shape="1187.50,494.87 1186.84,493.54 1186.90,492.62 1187.67,492.11 1189.15,492.01"/>
    </edge>
    <edge id=":1114113744_0" function="internal">
        <lane id=":1114113744_0_0" index="0" allow="delivery bicycle pedestrian" speed="5.56" length="12.33" shape="1345.09,496.05 1333.04,498.67"/>
    </edge>
    <edge id=":1114113744_1" function="internal">
        <lane id=":1114113744_1_0" index="0" allow="delivery bicycle pedestrian" speed="5.56" length="13.32" shape="1345.09,496.05 1341.74,496.14 1338.82,495.12 1336.02,493.40 1333.04,491.41"/>
    </edge>
    <edge id=":1114113744_2" function="internal">
        <lane id=":1114113744_2_0" index="0" allow="delivery bicycle pedestrian" speed="5.56" length="4.82" shape="1345.09,496.05 1343.70,495.50 1343.13,494.79 1343.35,493.89 1344.39,492.82"/>
    </edge>
    <edge id=":1114113744_3" function="internal">
        <lane id=":1114113744_3_0" index="0" allow="delivery bicycle pedestrian" speed="5.56" length="10.98" shape="1334.77,488.61 1337.38,490.53 1339.34,492.11 1341.42,492.98 1344.39,492.82"/>
    </edge>
    <edge id=":1114113744_4" function="internal">
        <lane id=":1114113744_4_0" index="0" allow="delivery bicycle pedestrian" speed="5.56" length="16.72" shape="1334.77,488.61 1338.99,491.93 1340.10,494.71 1338.12,496.96 1333.04,498.67"/>
    </edge>
    <edge id=":1114113744_5" function="internal">
        <lane id=":1114113744_5_0" index="0" allow="delivery bicycle pedestrian" speed="5.56" length="4.82" shape="1334.77,488.61 1335.39,489.96 1335.31,490.88 1334.52,491.36 1333.04,491.41"/>
    </edge>
    <edge id=":1114113744_6" function="internal">
        <lane id=":1114113744_6_0" index="0" allow="delivery bicycle pedestrian" speed="5.56" length="6.70" shape="1332.34,495.45 1334.38,494.76 1335.17,493.86 1334.72,492.74 1333.04,491.41"/>
    </edge>
    <edge id=":1114113744_7" function="internal">
        <lane id=":1114113744_7_0" index="0" allow="delivery bicycle pedestrian" speed="5.56" length="12.33" shape="1332.34,495.45 1344.39,492.82"/>
    </edge>
    <edge id=":1114113744_8" function="internal">
        <lane id=":1114113744_8_0" index="0" allow="delivery bicycle pedestrian" speed="5.56" length="4.82" shape="1332.34,495.45 1333.73,495.99 1334.30,496.71 1334.08,497.60 1333.04,498.67"/>
    </edge>
    <edge id=":1114113760_0" function="internal">
        <lane id=":1114113760_0_0" index="0" allow="delivery bicycle pedestrian" speed="5.56" length="4.82" shape="1210.83,396.50 1212.27,396.90 1212.92,397.55 1212.79,398.46 1211.88,399.63"/>
    </edge>
    <edge id=":1114113771_0" function="internal">
        <lane id=":1114113771_0_0" index="0" allow="delivery bicycle pedestrian" speed="5.56" length="8.16" shape="1035.82,465.03 1033.43,463.44 1031.40,462.43 1029.75,462.00 1028.45,462.16"/>
    </edge>
    <edge id=":1114113771_1" function="internal">
        <lane id=":1114113771_1_0" index="0" allow="delivery bicycle pedestrian" speed="5.56" length="13.87" shape="1035.82,465.03 1032.80,462.14 1031.99,459.51 1033.41,457.17 1037.05,455.09"/>
    </edge>
    <edge id=":1114113771_2" function="internal">
        <lane id=":1114113771_2_0" index="0" allow="delivery bicycle pedestrian" speed="5.56" length="4.82" shape="1035.82,465.03 1035.31,463.64 1035.47,462.73 1036.29,462.31 1037.78,462.37"/>
    </edge>
    <edge id=":1114113771_3" function="internal">
        <lane id=":1114113771_3_0" index="0" allow="delivery bicycle pedestrian" speed="5.56" length="5.89" shape="1038.30,458.15 1036.75,459.03 1036.15,460.03 1036.49,461.14 1037.78,462.37"/>
    </edge>
    <edge id=":1114113771_4" function="internal">
        <lane id=":1114113771_4_0" index="0" allow="delivery bicycle pedestrian" speed="5.56" length="10.63" shape="1038.30,458.15 1028.45,462.16"/>
    </edge>
    <edge id=":1114113771_5" function="internal">
        <lane id=":1114113771_5_0" index="0" allow="delivery bicycle pedestrian" speed="5.56" length="4.82" shape="1038.30,458.15 1036.84,457.85 1036.15,457.24 1036.22,456.32 1037.05,455.09"/>
    </edge>
    <edge id=":1114113771_6" function="internal">
        <lane id=":1114113771_6_0" index="0" allow="delivery bicycle pedestrian" speed="5.56" length="10.63" shape="1027.21,459.10 1037.05,455.09"/>
    </edge>
    <edge id=":1114113771_7" function="internal">
        <lane id=":1114113771_7_0" index="0" allow="delivery bicycle pedestrian" speed="5.56" length="11.49" shape="1027.21,459.10 1029.34,458.71 1031.81,459.12 1034.62,460.34 1037.78,462.37"/>
    </edge>
    <edge id=":1114113771_8" function="internal">
        <lane id=":1114113771_8_0" index="0" allow="delivery bicycle pedestrian" speed="5.56" length="4.82" shape="1027.21,459.10 1028.66,459.40 1029.36,460.01 1029.29,460.93 1028.45,462.16"/>
    </edge>
    <edge id=":1114113772_0" function="internal">
        <lane id=":1114113772_0_0" index="0" allow="delivery bicycle pedestrian" speed="5.56" length="9.53" shape="1369.46,462.66 1365.32,471.24"/>
    </edge>
    <edge id=":1114113772_1" function="internal">
        <lane id=":1114113772_1_0" index="0" allow="delivery bicycle pedestrian" speed="5.56" length="10.85" shape="1369.46,462.66 1367.77,465.16 1365.73,466.43 1363.32,466.46 1360.55,465.27"/>
    </edge>
    <edge id=":1114113772_2" function="internal">
        <lane id=":1114113772_2_0" index="0" allow="delivery bicycle pedestrian" speed="5.56" length="4.82" shape="1369.46,462.66 1368.18,463.41 1367.25,463.43 1366.69,462.70 1366.48,461.22"/>
    </edge>
    <edge id=":1114113772_3" function="internal">
        <lane id=":1114113772_3_0" index="0" allow="delivery bicycle pedestrian" speed="5.56" length="5.13" shape="1362.28,462.46 1363.58,463.02 1364.72,463.00 1365.69,462.40 1366.48,461.22"/>
    </edge>
    <edge id=":1114113772_4" function="internal">
        <lane id=":1114113772_4_0" index="0" allow="delivery bicycle pedestrian" speed="5.56" length="10.37" shape="1362.28,462.46 1364.57,464.30 1365.84,466.38 1366.09,468.69 1365.32,471.24"/>
    </edge>
    <edge id=":1114113772_5" function="internal">
        <lane id=":1114113772_5_0" index="0" allow="delivery bicycle pedestrian" speed="5.56" length="4.82" shape="1362.28,462.46 1362.90,463.81 1362.82,464.73 1362.03,465.21 1360.55,465.27"/>
    </edge>
    <edge id=":1114113772_6" function="internal">
        <lane id=":1114113772_6_0" index="0" allow="delivery bicycle pedestrian" speed="5.56" length="5.44" shape="1362.35,469.81 1362.71,468.53 1362.54,467.35 1361.81,466.26 1360.55,465.27"/>
    </edge>
    <edge id=":1114113772_7" function="internal">
        <lane id=":1114113772_7_0" index="0" allow="delivery bicycle pedestrian" speed="5.56" length="9.53" shape="1362.35,469.81 1366.48,461.22"/>
    </edge>
    <edge id=":1114113772_8" function="internal">
        <lane id=":1114113772_8_0" index="0" allow="delivery bicycle pedestrian" speed="5.56" length="4.82" shape="1362.35,469.81 1363.63,469.05 1364.55,469.04 1365.11,469.77 1365.32,471.24"/>
    </edge>
    <edge id=":1114113773_0" function="internal">
        <lane id=":1114113773_0_0" index="0" allow="delivery bicycle pedestrian" speed="5.56" length="4.73" shape="1063.84,555.81 1062.55,555.84 1061.48,556.20 1060.62,556.90 1059.98,557.92"/>
    </edge>
    <edge id=":1114113773_1" function="internal">
        <lane id=":1114113773_1_0" index="0" allow="delivery bicycle pedestrian" speed="5.56" length="8.39" shape="1063.84,555.81 1061.53,555.29 1060.16,554.33 1058.98,552.92 1057.27,551.08"/>
    </edge>
    <edge id=":1114113773_2" function="internal">
        <lane id=":1114113773_2_0" index="0" allow="delivery bicycle pedestrian" speed="5.56" length="4.82" shape="1063.84,555.81 1062.69,554.87 1062.35,554.01 1062.84,553.23 1064.16,552.52"/>
    </edge>
    <edge id=":1114113773_3" function="internal">