<?xml version="1.0" encoding="UTF-8"?>

<!-- generated on Sat Aug  4 00:56:58 2018 by SUMO duarouter Version 0.30.0
<?xml version="1.0" encoding="UTF-8"?>

<configuration xmlns:xsi="http://www.w3.org/2001/XMLSchema-instance" xsi:noNamespaceSchemaLocation="http://sumo.dlr.de/xsd/duarouterConfiguration.xsd">

    <input>
        <net-file value="IRTSystemX.net.xml"/>
        <additional-files value="type.add.xml"/>
        <trip-files value="trips.trips.xml"/>
    </input>

    <output>
        <output-file value="IRTSystemX.0.rou.xml"/>
    </output>

    <processing>
        <ignore-errors value="true"/>
    </processing>

    <time>
        <begin value="0"/>
        <end value="100.0"/>
    </time>

    <report>
        <no-warnings value="true"/>
        <no-step-log value="true"/>
    </report>

</configuration>
-->

<routes xmlns:xsi="http://www.w3.org/2001/XMLSchema-instance" xsi:noNamespaceSchemaLocation="http://sumo.dlr.de/xsd/routes_file.xsd">
    <vehicle id="a0" type="passenger1" depart="0.00">
        <route edges="408197311#5 408197311#6 83487127#0 410000810#0 410000810#1"/>
    </vehicle>
    <vehicle id="a1" type="passenger1" depart="2.00">
        <route edges="404287181#0 404287181#1 47519280#1 47519280#2 47519280#3 47519280#4 -263684089 -263684088 -263684087#1 263684087#1"/>
    </vehicle>
    <vehicle id="a2" type="passenger1" depart="4.00">
        <route edges="47519280#2 -47519280#2 -47519280#1 -47519280#0 404295023 406017622#0 406017622#1 410000810#0 410000810#1 410000810#2 410000810#3 410000810#4 410000810#5 410000810#6 424959220 -548881049 -408197310#5 408197310#5"/>
    </vehicle>
    <vehicle id="a3" type="passenger1" depart="6.00">
        <route edges="408197311#0 408197311#1 408197311#2 408197311#3 408197311#4 408197311#5 408197311#6 404287181#0 404287181#1 -47519280#0 404295023 548881045 548881046#0 548881046#1 363081449#0 363081449#1 363081449#2 363081449#3 339736822#0 339736822#1"/>
    </vehicle>
    <vehicle id="a4" type="passenger1" depart="8.00">
        <route edges="-408197310#5 -408197310#4 -408197310#3 -408197310#2 -408197310#1 -408197310#0 -408197311#2 -408197311#1 408197311#1"/>
    </vehicle>
    <vehicle id="a5" type="passenger1" depart="10.00">
        <route edges="-47519280#4 -47519280#3 -47519280#2 -47519280#1 -47519280#0 404295023 548881045 548881046#0 548881046#1 363081449#0 363081449#1 363081449#2 363081449#3 339736822#0 339736822#1"/>
    </vehicle>
    <vehicle id="a6" type="passenger1" depart="12.00">
        <route edges="316905861#0 316905861#1 316905861#2 -548881049 -408197310#5 408197310#5"/>
    </vehicle>
    <vehicle id="a7" type="passenger1" depart="14.00">
        <route edges="339736822#1 -339736822#1 -339736822#0 -363081449#3 -363081449#2 -363081449#1 -363081449#0 -548881046#1 -548881046#0 -548881045 406017622#0 406017622#1 410000810#0 410000810#1 410000810#2 410000810#3 410000810#4 410000810#5 410000810#6 424959220 -548881049 -408197310#5 -408197310#4"/>
    </vehicle>
    <vehicle id="a8" type="passenger1" depart="16.00">
        <route edges="-47519280#4 -47519280#3 -47519280#2 -47519280#1 -47519280#0 404295023 406017622#0 406017622#1 83487127#1 83487127#2 83487127#3 83487127#4 -83487127#4"/>
    </vehicle>
    <vehicle id="a9" type="passenger1" depart="18.00">
        <route edges="-83487127#4 83487127#4 83487127#5 83487127#6 -392689404 118075890#0"/>
    </vehicle>
    <vehicle id="a10" type="passenger1" depart="20.00">
        <route edges="-118075890#7 118075890#7 339736822#0 339736822#1 -339736822#1"/>
    </vehicle>
    <vehicle id="a12" type="passenger1" depart="24.00">
        <route edges="408197310#5 548881049 363082411#0 363082411#1 363082411#2 376385690#0 376385690#1 376385690#2 376385690#3 376385690#4 376385690#5 404287181#0 404287181#1 -47519280#0 404295023 406017622#0 406017622#1"/>
    </vehicle>
    <vehicle id="a13" type="passenger1" depart="26.00">
        <route edges="47519280#3 -47519280#3 -47519280#2 -47519280#1 -47519280#0 404295023 406017622#0 406017622#1 83487127#1 83487127#2 83487127#3 83487127#4 -83487127#4"/>
    </vehicle>
    <vehicle id="a14" type="passenger1" depart="28.00">
        <route edges="404287181#0 404287181#1 404287181#2 489344451#0"/>
    </vehicle>
    <vehicle id="a15" type="passenger1" depart="30.00">
        <route edges="-263684088 263684088 263684089 392689403#0 392689403#1 361585734 450271743 408197311#0 408197311#1 408197311#2 408197311#3"/>
    </vehicle>
    <vehicle id="a17" type="passenger1" depart="34.00">
        <route edges="-408197310#3 -408197310#2 -408197310#1 -408197310#0 408197311#3 -408197311#3"/>
    </vehicle>
    <vehicle id="a18" type="passenger1" depart="36.00">
        <route edges="404287181#2 410000816 410000812 118793670#0 118793670#1"/>
    </vehicle>
    <vehicle id="a19" type="passenger1" depart="38.00">
        <route edges="-47519280#2 -47519280#1 -47519280#0 404295023 406017622#0 406017622#1 410000810#0 410000810#1 410000810#2 410000810#3 410000810#4 410000810#5 410000810#6 424959220 -548881049 -408197310#5 -408197310#4"/>
    </vehicle>
    <vehicle id="a20" type="passenger1" depart="40.00">
        <route edges="363082411#2 376385690#0 376385690#1 376385690#2 376385690#3 376385690#4 376385690#5 404287181#0 404287181#1 47519280#1 47519280#2 -47519280#2"/>
    </vehicle>
    <vehicle id="a21" type="passenger1" depart="42.00">
        <route edges="339736822#1 -339736822#1 -339736822#0 -363081449#3 -363081449#2 -363081449#1 -363081449#0 -548881046#1 -548881046#0 -548881045 406017622#0 406017622#1 -83487127#0 -408197311#6 -408197311#5 -408197311#4 -408197311#3"/>
    </vehicle>
    <vehicle id="a22" type="passenger1" depart="44.00">
        <route edges="-408197310#4 -408197310#3 -408197310#2 -408197310#1 -408197310#0 408197311#3 408197311#4 408197311#5 408197311#6 404287181#0 404287181#1 -47519280#0 404295023 548881045 548881046#0 548881046#1 -548881046#1"/>
    </vehicle>
    <vehicle id="a23" type="passenger1" depart="46.00">
        <route edges="-408197311#3 -408197311#2"/>
    </vehicle>
    <vehicle id="a24" type="passenger1" depart="48.00">
        <route edges="339736822#1 -339736822#1 -339736822#0 -363081449#3 -363081449#2 -363081449#1 -363081449#0 -548881046#1 -548881046#0 -548881045 -404295023 47519280#0 47519280#1 47519280#2 47519280#3 47519280#4 -263684089 -263684088 -263684087#1 -263684087#0"/>
    </vehicle>
    <vehicle id="a25" type="passenger1" depart="50.00">
        <route edges="-47519280#3 -47519280#2 -47519280#1 -47519280#0 404295023 406017622#0 406017622#1 -83487127#0 -408197311#6 -408197311#5"/>
    </vehicle>
    <vehicle id="a26" type="passenger1" depart="52.00">
        <route edges="410000810#6 424959220 363082411#0 363082411#1 363082411#2 376385690#0 376385690#1 376385690#2 376385690#3 376385690#4 376385690#5 404287181#0 404287181#1 47519280#1 47519280#2"/>
    </vehicle>
    <vehicle id="a27" type="passenger1" depart="54.00">
        <route edges="-118075890#0 392689404 -83487127#6 -83487127#5 -83487127#4 -83487127#3 -83487127#2 -83487127#1 -83487127#0 404287181#0 404287181#1 404287181#2 489344451#0"/>
    </vehicle>
    <vehicle id="a28" type="passenger1" depart="56.00">
        <route edges="406513809 -404295023 47519280#0 47519280#1 47519280#2 47519280#3 47519280#4 -263684089"/>
    </vehicle>
    <vehicle id="a29" type="passenger1" depart="58.00">
        <route edges="408197310#5 -408197310#5 -408197310#4 -408197310#3 -408197310#2 -408197310#1 -408197310#0 -408197311#2 -408197311#1 -408197311#0 -450271743 -361585734 -392689403#1 -392689403#0 -263684089 -263684088 -263684087#1 263684087#1"/>
    </vehicle>
    <vehicle id="a30" type="passenger1" depart="60.00">
        <route edges="408197310#4 -408197310#4 -408197310#3 -408197310#2 -408197310#1 -408197310#0 -408197311#2 -408197311#1 -408197311#0 -450271743 -361585734 -392689403#1 -392689403#0 -263684089 -263684088 -263684087#1"/>
    </vehicle>
    <vehicle id="a31" type="passenger1" depart="62.00">
        <route edges="339736822#1 -339736822#1 -339736822#0 -363081449#3"/>
    </vehicle>
    <vehicle id="a35" type="passenger1" depart="70.00">
        <route edges="408197311#3 408197311#4 -408197311#4"/>
    </vehicle>
    <vehicle id="a37" type="passenger1" depart="74.00">
        <route edges="-118075890#7 118075890#7 -363081449#3 -363081449#2 -363081449#1 -363081449#0 -548881046#1 -548881046#0 -548881045 406017622#0 406017622#1 -83487127#0 -408197311#6 -408197311#5 -408197311#4 -408197311#3"/>
    </vehicle>
    <vehicle id="a38" type="passenger1" depart="76.00">
        <route edges="-263684089 263684089 -47519280#4 -47519280#3 -47519280#2 -47519280#1 -47519280#0 404295023 406017622#0 406017622#1 -83487127#0 404287181#0"/>
    </vehicle>
    <vehicle id="a39" type="passenger1" depart="78.00">
        <route edges="-339736822#1 -339736822#0 -363081449#3 -363081449#2 -363081449#1 -363081449#0 -548881046#1 -548881046#0 -548881045 406017622#0 406017622#1 -83487127#0 -408197311#6 -408197311#5 -408197311#4 -408197311#3"/>
    </vehicle>
    <vehicle id="a40" type="passenger1" depart="80.00">
        <route edges="339736822#1 -339736822#1 -339736822#0 -363081449#3 -363081449#2 -363081449#1 -363081449#0 -548881046#1 -548881046#0 -548881045 406017622#0 406017622#1 -83487127#0 404287181#0"/>
    </vehicle>
    <vehicle id="a41" type="passenger1" depart="82.00">
        <route edges="97050358 -118793670#0 -410000812 -410000816 406513809 -404295023 47519280#0 47519280#1 47519280#2 -47519280#2"/>
    </vehicle>
    <vehicle id="a42" type="passenger1" depart="84.00">
        <route edges="-408197310#4 408197310#4"/>
    </vehicle>
    <vehicle id="a43" type="passenger1" depart="86.00">
        <route edges="-97050352 -410000812 -410000816 406513809 -404295023 47519280#0 47519280#1 47519280#2"/>
    </vehicle>
    <vehicle id="a44" type="passenger1" depart="88.00">
        <route edges="-408197310#4 -408197310#3 -408197310#2 -408197310#1 -408197310#0 408197311#3 408197311#4 408197311#5 408197311#6 404287181#0 404287181#1 -47519280#0 404295023 548881045 548881046#0 548881046#1 363081449#0 363081449#1 363081449#2 363081449#3 339736822#0 339736822#1 339736822#2 -339736822#2"/>
    </vehicle>
    <vehicle id="a45" type="passenger1" depart="90.00">
        <route edges="-263684087#1 263684087#1 263684088 263684089 392689403#0 392689403#1 361585734 450271743 408197311#0 408197311#1 408197311#2 408197310#0 408197310#1 408197310#2 408197310#3 408197310#4 408197310#5"/>
    </vehicle>
    <vehicle id="a46" type="passenger1" depart="92.00">
        <route edges="408197311#1 -408197311#1 -408197311#0 -450271743 -361585734 -392689403#1 -392689403#0 -263684089 -263684088 -263684087#1 -263684087#0"/>
    </vehicle>
    <vehicle id="a47" type="passenger1" depart="94.00">
        <route edges="408197311#4 408197311#5 408197311#6 83487127#0 83487127#1 83487127#2 83487127#3 83487127#4"/>
    </vehicle>
    <vehicle id="a48" type="passenger1" depart="96.00">
        <route edges="408197310#5 -408197310#5 -408197310#4 -408197310#3 -408197310#2 -408197310#1 -408197310#0 -408197311#2 -408197311#1 -408197311#0 -450271743 -361585734 -392689403#1 392689403#1"/>
    </vehicle>
    <vehicle id="a49" type="passenger1" depart="98.00">
        <route edges="410000810#0 410000810#1 410000810#2 410000810#3 410000810#4 410000810#5 410000810#6"/>
    </vehicle>
</routes>
