<?xml version="1.0" encoding="UTF-8"?>

<!-- generated on Tue Apr 17 08:38:34 2018 by SUMO polyconvert Version 0.30.0
<?xml version="1.0" encoding="UTF-8"?>

<configuration xmlns:xsi="http://www.w3.org/2001/XMLSchema-instance" xsi:noNamespaceSchemaLocation="http://sumo.dlr.de/xsd/polyconvertConfiguration.xsd">

    <input>
        <net-file value="/home/joseph/Projects/ConfidenceRange/Programs/osm2sumo/IRTSystemX/IRTSystemX.net.xml"/>
        <osm-files value="IRTSystemX_bbox.osm.xml"/>
        <osm.keep-full-type value="false"/>
        <type-file value="/home/joseph/Projects/ConfidenceRange/Programs/osm2sumo/typemap/Polyconvert.typ.xml"/>
    </input>

    <output>
        <output-file value="/home/joseph/Projects/ConfidenceRange/Programs/osm2sumo/IRTSystemX/IRTSystemX.poly.xml"/>
    </output>

    <processing>
        <poi-layer-offset value="5"/>
    </processing>

</configuration>
-->

<additional xmlns:xsi="http://www.w3.org/2001/XMLSchema-instance" xsi:noNamespaceSchemaLocation="http://sumo.dlr.de/xsd/additional_file.xsd">
    <location netOffset="-439116.92,-5395387.71" convBoundary="0.00,-794.81,3875.28,2222.42" origBoundary="2.172298,48.701660,2.225107,48.728591" projParameter="+proj=utm +zone=31 +ellps=WGS84 +datum=WGS84 +units=m +no_defs"/>

    <poly id="140048143" type="amenity" color="237,199,199" fill="1" layer="-1.00" shape="1104.77,1361.64 1116.97,1095.55 1040.33,1082.43 1005.22,1077.05 979.46,1064.38 955.93,1037.72 932.02,1017.80 905.25,1006.27 886.97,1004.99 856.51,1018.61 803.07,1051.65 790.34,1062.13 786.58,1073.25 783.17,1083.37 745.66,1267.83 732.89,1319.64 754.04,1359.77 806.82,1356.25 1104.77,1361.64"/>
    <poly id="140048144" type="forest" color="140,196,107" fill="1" layer="-3.00" shape="1043.71,1337.32 985.93,1241.49 943.71,1171.07 916.07,1124.62 877.28,1097.96 786.58,1073.25 790.34,1062.13 803.07,1051.65 856.51,1018.61 886.97,1004.99 905.25,1006.27 932.02,1017.80 955.93,1037.72 975.36,1057.78 980.64,1063.35 1005.22,1077.05 1040.33,1082.43 1116.97,1095.55 1104.77,1361.64 1043.71,1337.32"/>
    <poly id="140538734" type="building" color="255,230,230" fill="1" layer="-1.00" shape="2236.84,567.40 2211.87,572.11 2204.30,530.50 2267.89,519.16 2271.10,537.03 2280.57,535.37 2277.37,517.40 2297.56,513.85 2300.45,529.94 2303.46,529.35 2303.15,527.58 2309.32,526.51 2306.74,512.20 2363.06,502.05 2366.65,522.24 2301.23,534.04 2304.98,555.02 2343.46,548.06 2347.12,568.25 2317.83,573.56 2318.14,575.45 2304.85,577.81 2304.53,575.81 2256.58,584.43 2257.36,588.42 2249.36,589.95 2249.83,592.50 2216.56,598.30 2213.12,578.43 2285.80,564.44 2281.04,538.15 2271.64,539.80 2272.27,544.13 2240.62,549.13 2239.99,544.80 2233.15,545.87 2236.84,567.40"/>
    <poly id="140996258" type="building" color="255,230,230" fill="1" layer="-1.00" shape="2596.76,990.46 2599.01,988.81 2599.36,990.53 2596.76,990.46"/>
    <poly id="140996259" type="landuse" color="194,194,130" fill="1" layer="-3.00" shape="2595.93,991.80 2595.79,988.14 2599.26,988.01 2599.36,990.53 2599.40,991.67 2595.93,991.80"/>
    <poly id="140999325" type="amenity" color="237,199,199" fill="1" layer="-1.00" shape="2496.44,170.73 2468.77,175.15 2459.02,177.61 2447.04,183.43 2435.91,189.55 2451.07,266.44 2502.34,263.54 2496.44,170.73"/>
    <poly id="142055302" type="building" color="255,230,230" fill="1" layer="-1.00" shape="2188.71,1021.20 2191.11,1023.43 2193.26,1022.03 2195.21,1020.25 2195.99,1019.16 2194.29,1016.91 2188.71,1021.20"/>
    <poly id="142059681" type="building" color="255,230,230" fill="1" layer="-1.00" shape="2252.27,810.98 2251.83,809.11 2251.71,807.37 2251.86,805.52 2252.38,803.89 2253.18,802.38 2254.32,801.02 2255.77,799.67 2256.98,799.02 2258.44,798.77 2278.36,795.30 2279.78,795.17 2281.34,795.48 2282.51,795.90 2283.83,796.62 2285.35,797.87 2286.86,799.50 2287.77,801.29 2288.04,803.09 2287.91,805.31 2287.56,807.08 2286.66,808.91 2285.74,810.11 2284.12,811.52 2282.92,812.27 2281.09,812.92 2260.99,816.20 2258.81,816.09 2257.30,815.84 2255.60,814.99 2254.19,813.67 2253.22,812.46 2252.27,810.98"/>
    <poly id="158375654" type="landuse" color="194,194,130" fill="1" layer="-3.00" shape="1595.94,291.98 1547.63,237.90 1868.06,198.97 1867.30,253.77 1724.27,267.17 1658.92,277.42 1595.94,291.98"/>
    <poly id="160212565" type="water" color="181,209,209" fill="0" layer="-4.00" shape="2251.15,217.71 2137.48,278.76"/>
    <poly id="167196563" type="building" color="255,230,230" fill="1" layer="-1.00" shape="1586.87,419.88 1663.43,406.84 1669.61,442.93 1593.04,455.96 1586.87,419.88"/>
    <poly id="167196564" type="building" color="255,230,230" fill="1" layer="-1.00" shape="2023.45,325.53 1905.75,344.72 1911.65,380.70 1934.19,377.03 1931.18,358.72 1942.52,356.87 1945.40,374.47 1965.43,371.21 1962.51,353.43 1974.40,351.49 1977.35,369.52 1997.86,366.19 1995.15,349.62 2004.42,348.10 2007.11,364.48 2029.25,360.86 2023.45,325.53"/>
    <poly id="167196565" type="building" color="255,230,230" fill="1" layer="-1.00" shape="1583.73,403.26 1660.03,389.25 1653.41,353.39 1577.11,367.39 1583.73,403.26"/>
    <poly id="169336561" type="building" color="255,230,230" fill="1" layer="-1.00" shape="1493.40,471.65 1570.78,458.24 1564.74,423.60 1487.37,437.00 1493.40,471.65"/>
    <poly id="172384646" type="commercial" color="209,209,204" fill="1" layer="-3.00" shape="1711.40,965.52 1676.45,744.90 1903.31,709.16 1967.36,1082.90 1882.97,1099.89 1727.17,1074.08 1711.40,965.52"/>
    <poly id="172969387" type="industrial" color="209,209,204" fill="1" layer="-3.00" shape="1461.73,490.40 1470.19,489.00 1582.36,473.41 1690.11,452.57 1680.91,397.97 1669.27,328.83 1619.10,337.77 1448.65,429.49 1450.22,436.50 1461.73,490.40"/>
    <poly id="177175453" type="natural" color="140,196,107" fill="1" layer="-4.00" shape="1625.30,272.71 1628.04,276.37 1621.22,284.22 1599.43,286.03 1569.72,260.52 1572.96,255.13 1592.50,270.67 1625.30,272.71"/>
    <poly id="177175453#1" type="sport" color="79,230,125" fill="1" layer="-2.00" shape="1625.30,272.71 1628.04,276.37 1621.22,284.22 1599.43,286.03 1569.72,260.52 1572.96,255.13 1592.50,270.67 1625.30,272.71"/>
    <poly id="177175453#2" type="tourism" color="207,245,201" fill="1" layer="-2.00" shape="1625.30,272.71 1628.04,276.37 1621.22,284.22 1599.43,286.03 1569.72,260.52 1572.96,255.13 1592.50,270.67 1625.30,272.71"/>
    <poly id="187271668" type="water" color="181,209,209" fill="1" layer="-4.00" shape="2263.25,876.15 2276.78,877.41 2285.28,877.47 2291.67,875.94 2294.20,873.54 2296.65,869.41 2297.93,859.40 2298.43,849.60 2296.22,846.49 2293.62,845.22 2288.45,845.67 2284.56,845.71 2260.52,849.96 2257.29,851.54 2255.25,854.41 2254.51,857.64 2255.67,869.82 2257.82,873.37 2261.23,875.64 2263.25,876.15"/>
    <poly id="19095541" type="water" color="181,209,209" fill="1" layer="-4.00" shape="3064.74,737.87 3025.40,761.55 3003.68,771.30 2997.89,774.02 2986.89,781.43 2954.38,793.65 2936.79,795.76 2924.19,791.50 2908.99,774.62 2840.80,683.21 2751.50,687.43 2748.63,698.29 2738.14,698.92 2735.19,688.20 2731.05,688.40 2721.79,748.58 2716.24,777.90 2712.97,793.08 2707.87,807.60 2704.76,813.61 2701.35,820.95 2694.85,829.60 2681.92,836.86 2668.96,840.46 2607.11,845.67 2535.71,847.50 2484.97,845.66 2438.07,840.81 2403.52,833.36 2378.17,825.22 2371.01,823.66 2363.08,822.36 2356.20,821.27 2350.33,825.33 2345.08,848.40 2342.07,856.41 2341.63,869.61 2346.00,876.14 2348.75,884.88 2356.10,887.17 2366.36,885.60 2749.97,863.72 2786.58,862.06 2807.62,860.93 2890.54,856.24 2967.60,851.97 2999.93,848.86 3013.05,845.94 3027.38,843.14 3050.43,839.12 3079.58,834.41 3108.44,826.05 3113.56,817.82 3113.66,807.68 3097.92,776.77 3086.25,763.15 3082.07,751.31 3076.59,741.34 3064.74,737.87"/>
    <poly id="198348367" type="leisure" color="207,245,201" fill="1" layer="-2.00" shape="2603.04,960.30 2698.89,954.77 2695.38,894.06 2599.54,899.59 2603.04,960.30"/>
    <poly id="198348367#1" type="sport" color="79,230,125" fill="1" layer="-2.00" shape="2603.04,960.30 2698.89,954.77 2695.38,894.06 2599.54,899.59 2603.04,960.30"/>
    <poly id="198348368" type="leisure" color="207,245,201" fill="1" layer="-2.00" shape="2716.80,954.00 2813.82,948.38 2810.33,888.01 2713.31,893.63 2716.80,954.00"/>
    <poly id="198348368#1" type="sport" color="79,230,125" fill="1" layer="-2.00" shape="2716.80,954.00 2813.82,948.38 2810.33,888.01 2713.31,893.63 2716.80,954.00"/>
    <poly id="198348393" type="leisure" color="207,245,201" fill="1" layer="-2.00" shape="2494.13,964.64 2587.19,959.26 2583.93,902.71 2490.87,908.08 2494.13,964.64"/>
    <poly id="198348393#1" type="sport" color="79,230,125" fill="1" layer="-2.00" shape="2494.13,964.64 2587.19,959.26 2583.93,902.71 2490.87,908.08 2494.13,964.64"/>
    <poly id="198355830" type="building" color="255,230,230" fill="1" layer="-1.00" shape="2420.02,317.33 2435.40,316.44 2434.99,309.36 2419.61,310.26 2420.02,317.33"/>
    <poly id="198358616" type="building" color="255,230,230" fill="1" layer="-1.00" shape="2604.52,603.68 2644.05,601.40 2643.39,589.95 2603.86,592.22 2604.52,603.68"/>
    <poly id="199617677" type="building" color="255,230,230" fill="1" layer="-1.00" shape="2416.80,1080.94 2630.83,1053.80 2599.36,990.53 2457.76,1002.64 2416.80,1080.94"/>
    <poly id="219713771" type="forest" color="140,196,107" fill="1" layer="-3.00" shape="1534.30,210.16 1477.78,226.37 1501.15,288.93 1523.56,348.85 1535.31,371.17 1660.67,313.78 1707.66,310.94 1783.36,303.84 1972.75,298.70 1890.70,183.08 1812.29,187.20 1770.79,189.38 1712.68,192.47 1708.19,192.78 1706.92,179.12 1706.02,163.36 1701.48,163.53 1697.71,159.81 1694.67,156.82 1647.37,174.00 1551.86,208.70 1543.90,211.20 1534.30,210.16"/>
    <poly id="219713772" type="landuse" color="194,194,130" fill="1" layer="-3.00" shape="2063.08,263.71 2067.55,235.16 2077.06,185.17 2083.26,152.63 2075.58,151.46 2077.11,142.75 2116.06,101.52 2147.14,103.54 2144.56,154.08 2144.45,156.78 2142.34,192.72 2140.74,217.56 2139.23,223.22 2131.82,255.99 2128.53,259.10 2124.49,259.39 2063.08,263.71"/>
    <poly id="219716159" type="forest" color="140,196,107" fill="1" layer="-3.00" shape="1501.15,288.93 1477.78,226.37 1534.30,210.16 1526.29,192.51 1509.82,159.01 1504.55,144.55 1500.60,133.09 1486.62,92.55 1479.57,72.13 1434.92,98.22 1410.05,103.50 1401.59,77.71 1425.86,57.03 1433.87,50.50 1450.90,36.61 1456.74,33.93 1493.01,17.27 1437.37,-48.25 1412.41,-19.65 1366.42,-9.72 1363.66,28.09 1335.30,32.80 1303.70,30.62 1280.74,68.64 1273.08,120.35 1219.54,133.51 1187.09,170.38 1176.21,215.83 1133.13,202.44 1053.76,280.09 918.85,360.24 520.12,541.04 517.65,545.32 515.55,550.87 556.13,688.37 726.12,642.48 725.35,570.08 742.82,561.48 746.70,552.53 760.02,545.85 779.77,546.44 792.41,550.35 794.96,528.86 844.06,508.74 856.48,501.00 869.93,497.58 904.51,495.76 1011.24,437.95 1079.57,411.65 1158.43,367.02 1281.36,306.01 1332.25,340.10 1420.31,307.68 1501.15,288.93"/>
    <poly id="238167940" type="building" color="255,230,230" fill="1" layer="-1.00" shape="2665.05,592.93 2715.75,590.02 2713.97,529.45 2704.57,530.50 2707.43,579.75 2664.38,581.50 2665.05,592.93"/>
    <poly id="250683467" type="landuse" color="194,194,130" fill="1" layer="-3.00" shape="2191.95,516.23 2191.33,506.77 2237.16,498.66 2238.32,508.91 2191.95,516.23"/>
    <poly id="250683477" type="parking" color="184,184,179" fill="1" layer="-1.00" shape="2259.40,597.34 2257.14,590.82 2287.25,585.05 2287.86,592.63 2259.40,597.34"/>
    <poly id="250683478" type="parking" color="184,184,179" fill="1" layer="-1.00" shape="2315.91,586.94 2315.11,579.92 2343.87,575.17 2344.36,582.24 2315.91,586.94"/>
    <poly id="250683479" type="parking" color="184,184,179" fill="1" layer="-1.00" shape="2364.79,579.59 2363.32,571.31 2361.91,563.37 2376.63,560.75 2365.56,498.24 2381.83,495.57 2391.48,558.07 2399.54,556.18 2400.51,566.02 2401.28,573.76 2364.79,579.59"/>
    <poly id="25115854" type="parking" color="184,184,179" fill="1" layer="-1.00" shape="2647.94,256.24 2642.95,166.01 2707.49,145.02 2710.84,148.37 2711.26,169.80 2710.26,175.52 2672.04,255.12 2647.94,256.24"/>
    <poly id="25115867" type="parking" color="184,184,179" fill="1" layer="-1.00" shape="2474.55,595.70 2490.12,609.77 2549.61,606.71 2552.84,603.24 2552.87,597.80 2551.89,580.86 2550.91,563.85 2549.79,544.77 2549.30,536.18 2548.74,526.56 2547.73,509.05 2546.74,492.02 2545.85,476.09 2544.73,457.26 2544.01,444.91 2543.69,439.38 2542.68,421.91 2541.87,414.15 2429.40,421.34 2429.02,429.57 2430.08,447.22 2430.62,455.88 2431.28,464.87 2432.19,482.51 2433.90,498.86 2435.17,515.43 2436.64,534.48 2437.94,551.33 2438.63,560.26 2439.36,569.77 2440.48,586.84 2441.22,599.34 2474.55,595.70"/>
    <poly id="25115931" type="landuse" color="194,194,130" fill="1" layer="-3.00" shape="2809.33,757.72 2816.76,763.33 2823.28,767.78 2831.10,771.56 2830.24,776.61 2821.66,773.34 2807.18,775.30 2800.77,768.84 2802.59,761.90 2809.33,757.72"/>
    <poly id="25115931#1" type="water" color="181,209,209" fill="1" layer="-4.00" shape="2809.33,757.72 2816.76,763.33 2823.28,767.78 2831.10,771.56 2830.24,776.61 2821.66,773.34 2807.18,775.30 2800.77,768.84 2802.59,761.90 2809.33,757.72"/>
    <poly id="251779925" type="landuse" color="194,194,130" fill="1" layer="-3.00" shape="1121.70,1091.36 1121.70,1091.47 1120.07,1350.15 1140.65,1351.94 1255.42,1588.58 1125.44,1648.84 1102.53,1590.72 1008.07,1375.72 885.98,1370.58 831.03,1363.50 809.19,1405.09 689.14,1404.71 485.18,1760.87 327.03,2039.51 558.98,2057.79 530.16,2222.42 725.54,2144.27 741.70,2134.98 766.69,2119.60 788.07,2104.36 814.09,2081.85 886.26,2022.38 907.09,2010.03 924.20,1999.85 951.24,1983.77 990.95,1969.78 1029.64,1955.81 1066.03,1940.41 1104.00,1921.44 1138.42,1900.40 1166.28,1878.53 1214.33,1838.78 1213.27,1836.56 1623.58,1498.92 1644.29,1481.92 1660.13,1471.08 1747.90,1430.13 1775.83,1421.16 1855.59,1411.81 1855.46,1409.06 1849.70,1285.87 1842.61,1134.08 1840.03,1098.73 1653.20,1086.39 1555.94,1105.54 1554.54,1105.44 1554.54,1105.55 1408.11,1101.21 1131.05,1092.04 1121.85,1091.36 1121.70,1091.36"/>
    <poly id="251779938" type="landuse" color="194,194,130" fill="1" layer="-3.00" shape="2269.47,210.67 2272.64,254.10 2278.33,348.10 2287.35,337.88 2326.67,235.53 2337.59,216.85 2283.70,206.52 2269.47,210.67"/>
    <poly id="251779966" type="landuse" color="194,194,130" fill="1" layer="-3.00" shape="794.90,874.09 813.55,1040.27 853.88,1014.91 863.40,1009.33 875.36,1003.83 887.38,1001.19 899.25,1002.13 911.31,1003.68 926.77,1008.64 944.04,1021.12 991.88,1062.35 1010.73,1072.40 1029.99,1076.60 1066.01,1084.06 1121.70,1091.47 1121.70,1091.36 1121.85,1091.36 1131.05,1092.04 1408.11,1101.21 1554.54,1105.55 1554.54,1105.44 1552.07,1087.35 1551.18,1087.36 1439.61,558.05 1358.74,560.87 756.07,683.51 794.90,874.09"/>
    <poly id="256688441" type="building" color="255,230,230" fill="1" layer="-1.00" shape="2506.88,1017.05 2506.59,1026.49 2497.12,1026.59 2497.41,1016.76 2506.88,1017.05"/>
    <poly id="262942835" type="parking" color="184,184,179" fill="1" layer="-1.00" shape="1486.63,427.51 1532.22,419.45 1530.89,409.56 1535.99,408.84 1534.35,395.82 1485.22,420.25 1486.63,427.51"/>
    <poly id="263099988" type="water" color="181,209,209" fill="1" layer="-4.00" shape="1692.86,450.37 1672.42,327.58 1680.57,326.22 1701.02,449.02 1692.86,450.37"/>
    <poly id="26623903" type="amenity" color="237,199,199" fill="1" layer="-1.00" shape="2208.01,615.50 2393.26,581.65 2389.46,471.07 2374.13,472.91 2188.68,509.87 2208.01,615.50"/>
    <poly id="267389248" type="forest" color="140,196,107" fill="1" layer="-3.00" shape="3493.04,1096.19 3497.42,1100.49 3498.70,1109.52 3497.96,1114.25 3392.93,1109.03 3291.17,1113.62 3042.71,1127.19 2899.20,1138.90 2836.54,1147.42 2762.91,1162.35 2716.86,1173.44 2687.74,1182.40 2555.68,1232.57 2489.95,1248.57 2340.88,1286.19 2329.77,1279.61 2316.81,1248.27 2294.29,1139.29 2421.02,1107.67 2463.50,1096.21 2627.72,1064.60 2811.02,1046.17 2894.22,1039.41 3020.86,1036.52 3152.33,1042.25 3159.49,1048.08 3165.54,1051.01 3176.85,1047.11 3213.98,1051.84 3341.98,1065.48 3462.18,1088.25 3493.04,1096.19"/>
    <poly id="26824937" type="commercial" color="209,209,204" fill="1" layer="-3.00" shape="2398.11,604.61 2207.56,639.06 2244.05,830.89 2314.21,818.27 2313.19,798.63 2393.23,646.30 2396.50,636.83 2397.62,625.18 2398.11,604.61"/>
    <poly id="26824965" type="commercial" color="209,209,204" fill="1" layer="-3.00" shape="2239.63,1040.07 1985.96,1085.75 1978.78,1079.58 1925.58,757.75 1987.79,691.77 2169.38,659.32 2185.15,752.35 2239.63,1040.07"/>
    <poly id="26825404" type="forest" color="140,196,107" fill="1" layer="-3.00" shape="1890.70,183.08 1912.44,88.41 1906.13,66.36 1945.56,65.44 1975.13,44.93 2009.07,29.47 2065.60,-0.09 2115.94,-17.62 2187.13,-32.84 2233.00,-54.73 2276.94,-80.38 2339.17,-108.10 2407.30,-115.11 2483.19,-104.57 2565.28,-105.42 2625.27,-106.05 2629.44,-130.01 2669.16,-136.73 2708.67,-162.32 2742.45,-194.15 2769.80,-175.55 2798.55,-142.47 2853.23,-168.23 2891.99,-145.33 2917.88,-145.60 2961.49,-142.27 2997.07,-121.22 3037.35,-134.24 3075.25,-133.37 3084.95,-110.80 3103.56,-83.29 3123.73,-86.64 3135.79,-81.10 3152.77,-87.58 3175.40,-97.25 3213.39,-87.57 3244.36,-85.36 3270.22,-88.15 3307.50,-86.64 3316.77,-105.63 3309.54,-133.26 3320.12,-149.11 3346.64,-148.76 3367.37,-160.30 3375.26,-190.60 3405.66,-182.10 3441.04,-181.83 3473.73,-195.39 3467.76,-223.03 3497.46,-222.08 3512.75,-208.39 3539.92,-207.40 3591.82,-195.97 3628.27,-213.35 3682.05,-203.19 3727.09,-184.13 3735.46,-167.84 3770.28,-160.01 3798.39,-128.18 3813.90,-93.07 3844.98,-80.17 3875.28,-81.11 3872.96,-60.30 3790.39,-29.92 3760.35,-18.87 3733.33,-19.82 3751.06,-62.22 3729.37,-84.03 3703.74,-120.92 3690.36,-136.62 3669.66,-137.46 3580.42,-130.75 3567.26,-118.37 3567.41,-97.39 3552.76,-81.93 3553.20,-21.15 3553.24,-14.31 3576.67,-10.07 3604.57,1.62 3625.53,12.73 3653.23,4.89 3691.25,17.10 3705.54,56.00 3696.26,74.98 3617.32,74.53 3572.68,93.87 3540.03,112.46 3510.20,-25.75 3314.75,4.59 3185.40,15.35 3090.78,25.78 2995.52,-26.77 2922.74,-41.76 2850.98,40.84 2655.56,74.35 2507.17,75.89 2390.56,95.99 2347.24,181.44 2268.28,179.12 2248.52,100.63 2273.29,53.15 2235.07,22.06 2213.56,78.95 2172.39,66.80 2143.81,51.35 2096.91,95.91 2053.44,165.63 2006.71,225.94 1972.75,298.70 1890.70,183.08"/>
    <poly id="291432488" type="landuse" color="194,194,130" fill="1" layer="-3.00" shape="3497.96,1114.25 3537.23,1118.18 3678.77,1114.57 3676.74,1092.84 3637.26,1070.13 3594.10,1049.77 3506.43,1030.39 3445.67,1014.02 3394.83,956.74 3352.17,876.43 3309.12,869.34 3228.09,907.31 3096.49,941.85 2599.36,990.53 2630.83,1053.80 2894.22,1039.41 3020.86,1036.52 3159.49,1048.08 3341.98,1065.48 3462.18,1088.25 3497.42,1100.49 3497.96,1114.25"/>
    <poly id="292491930" type="landuse" color="194,194,130" fill="1" layer="-3.00" shape="2282.20,1035.38 2257.26,887.15 2317.71,878.12 2336.61,986.47 2338.03,1009.14 2329.50,1021.97 2318.17,1027.97 2282.20,1035.38"/>
    <poly id="294441368" type="building" color="255,230,230" fill="1" layer="-1.00" shape="2592.67,368.89 2642.92,366.15 2641.61,342.23 2591.36,344.98 2591.95,355.69 2592.67,368.89"/>
    <poly id="30025278" type="parking" color="184,184,179" fill="1" layer="-1.00" shape="2761.74,418.95 2752.58,418.87 2752.46,415.01 2752.32,410.83 2757.77,406.57 2760.64,400.89 2764.07,395.56 2769.32,392.07 2780.12,389.00 2790.17,386.71 2795.84,387.19 2793.25,402.19 2790.77,409.52 2785.90,417.24 2776.96,419.70 2761.74,418.95"/>
    <poly id="30025285" type="building" color="255,230,230" fill="1" layer="-1.00" shape="2744.84,408.06 2743.19,411.06 2736.67,407.11 2749.51,383.87 2779.29,371.04 2781.58,378.50 2780.19,382.52 2775.18,386.32 2757.90,393.47 2748.75,410.09 2744.84,408.06"/>
    <poly id="30025558" type="parking" color="184,184,179" fill="1" layer="-1.00" shape="2914.40,679.73 2912.68,644.65 2910.93,609.64 2838.99,613.13 2839.99,629.04 2833.72,629.43 2815.74,630.46 2809.50,630.75 2808.72,615.54 2797.83,616.07 2786.95,616.59 2776.06,617.13 2765.18,617.67 2748.66,618.48 2733.91,619.79 2726.29,622.19 2719.48,626.27 2714.98,630.06 2711.28,635.13 2708.94,641.02 2707.21,648.39 2707.24,657.90 2709.69,669.50 2714.70,677.71 2719.11,682.21 2724.85,685.90 2731.05,688.40 2735.19,688.20 2751.50,687.43 2840.80,683.21 2914.40,679.73"/>
    <poly id="326475000" type="amenity" color="237,199,199" fill="1" layer="-1.00" shape="2539.85,294.11 2666.83,287.43 2671.97,263.21 2718.91,171.60 2717.70,130.69 2532.18,167.24 2539.85,294.11"/>
    <poly id="344102130" type="leisure" color="207,245,201" fill="1" layer="-2.00" shape="1350.91,1099.93 1347.67,1081.56 1545.86,1082.45 1551.81,1101.63 1350.91,1099.93"/>
    <poly id="344102130#1" type="sport" color="79,230,125" fill="1" layer="-2.00" shape="1350.91,1099.93 1347.67,1081.56 1545.86,1082.45 1551.81,1101.63 1350.91,1099.93"/>
    <poly id="371341988" type="building" color="255,230,230" fill="1" layer="-1.00" shape="2579.08,619.20 2579.18,629.71 2615.58,627.90 2615.24,617.63 2579.08,619.20"/>
    <poly id="376517475" type="water" color="181,209,209" fill="0" layer="-4.00" shape="1415.44,425.81 1413.89,427.89 1366.18,510.53 841.29,631.46 744.62,652.25 701.47,668.50 620.21,697.80 552.60,720.84 484.20,736.33 401.86,749.58"/>
    <poly id="376517476" type="water" color="181,209,209" fill="0" layer="-4.00" shape="1434.31,411.94 1415.44,425.81"/>
    <poly id="376517477" type="water" color="181,209,209" fill="0" layer="-4.00" shape="2137.48,278.76 2128.19,281.57"/>
    <poly id="376517478" type="water" color="181,209,209" fill="0" layer="-4.00" shape="2128.19,281.57 2030.90,284.66 1861.22,293.67 1725.94,297.13 1658.81,305.92 1567.49,347.53 1434.31,411.94"/>
    <poly id="404292462" type="building" color="255,230,230" fill="1" layer="-1.00" shape="2195.95,487.38 2194.88,478.87 2206.69,465.04 2322.47,446.45 2325.81,464.32 2265.98,474.96 2265.66,472.77 2260.27,473.61 2260.62,475.88 2195.95,487.38"/>
    <poly id="404295025" type="building" color="255,230,230" fill="1" layer="-1.00" shape="2077.11,387.79 2068.13,339.45 2125.97,328.77 2134.95,377.11 2077.11,387.79"/>
    <poly id="406017619" type="building" color="255,230,230" fill="1" layer="-1.00" shape="1738.44,442.05 1731.08,399.80 1695.83,405.91 1683.52,335.23 1747.50,324.14 1748.35,329.00 1813.21,317.76 1832.04,425.84 1738.44,442.05"/>
    <poly id="409992081" type="landuse" color="194,194,130" fill="1" layer="-3.00" shape="2184.02,1115.87 2176.76,1120.29 2169.47,1122.50 2162.73,1121.93 2145.28,1118.85 2133.63,1120.81 2121.65,1124.62 2107.00,1127.22 2103.23,1124.28 2095.27,1124.79 2090.73,1130.13 2086.04,1137.83 2078.04,1143.86 2067.40,1150.95 2053.93,1157.20 2044.62,1159.69 2032.34,1159.68 2020.56,1156.60 2012.26,1148.81 2006.02,1137.74 2002.92,1115.10 2236.23,1075.37 2240.16,1094.40 2230.71,1095.91 2219.43,1100.64 2207.67,1108.01 2194.90,1114.28 2184.02,1115.87"/>
    <poly id="409992082" type="landuse" color="194,194,130" fill="1" layer="-3.00" shape="2304.55,1081.60 2300.79,1061.36 2411.66,1043.04 2412.02,1049.31 2409.87,1053.93 2406.74,1057.36 2400.44,1059.61 2392.00,1064.50 2378.40,1065.53 2364.80,1068.82 2351.00,1073.15 2341.29,1077.47 2328.93,1080.61 2318.75,1084.28 2310.41,1084.40 2304.55,1081.60"/>
    <poly id="410115345" type="parking" color="184,184,179" fill="1" layer="-1.00" shape="1751.99,705.91 1828.24,691.95 1814.67,613.20 1752.52,625.55 1751.22,623.69 1737.86,626.14 1751.99,705.91"/>
    <poly id="420524083" type="building" color="255,230,230" fill="1" layer="-1.00" shape="1828.52,814.61 1836.55,812.11 1842.50,806.18 1845.01,798.17 1843.50,789.91 1838.31,783.31 1830.63,779.86 1822.24,780.36 1815.03,784.71 1810.68,791.88 1810.17,800.26 1813.62,807.91 1820.24,813.09 1828.52,814.61"/>
    <poly id="420524084" type="building" color="255,230,230" fill="1" layer="-1.00" shape="1820.44,950.21 1827.18,948.67 1832.59,944.37 1835.59,938.15 1835.59,931.25 1832.58,925.03 1827.17,920.73 1820.43,919.20 1813.68,920.74 1808.27,925.04 1805.27,931.26 1805.27,938.16 1808.27,944.38 1813.69,948.68 1820.44,950.21"/>
    <poly id="420524085" type="building" color="255,230,230" fill="1" layer="-1.00" shape="1885.28,938.23 1884.80,929.77 1883.83,922.40 1882.99,917.50 1882.47,916.90 1881.72,916.67 1880.91,916.83 1856.74,926.92 1854.98,927.92 1854.31,930.10 1854.73,932.35 1856.23,934.21 1881.94,939.64 1883.92,939.91 1885.28,938.23"/>
    <poly id="420524086" type="building" color="255,230,230" fill="1" layer="-1.00" shape="1892.20,847.90 1901.65,846.24 1909.44,840.65 1914.03,832.25 1914.50,822.69 1910.77,813.87 1903.58,807.55 1894.34,804.96 1884.89,806.63 1877.10,812.22 1872.52,820.61 1872.04,830.18 1875.77,838.99 1882.96,845.32 1892.20,847.90"/>
    <poly id="420524087" type="building" color="255,230,230" fill="1" layer="-1.00" shape="1747.54,799.42 1761.02,794.68 1771.40,784.90 1776.89,771.75 1776.54,757.50 1770.42,744.64 1759.57,735.37 1745.87,731.30 1731.71,733.13 1719.51,740.55 1711.40,752.27 1708.77,766.29 1712.08,780.14 1720.75,791.45 1733.30,798.28 1747.54,799.42"/>
    <poly id="420524088" type="building" color="255,230,230" fill="1" layer="-1.00" shape="1757.77,933.63 1784.27,930.79 1787.03,929.97 1787.41,928.69 1787.29,926.82 1786.29,925.35 1785.68,924.28 1762.56,910.75 1760.68,910.38 1759.41,911.47 1757.70,917.60 1756.36,921.54 1755.73,927.45 1755.48,931.98 1756.09,933.54 1757.77,933.63"/>
    <poly id="420524089" type="building" color="255,230,230" fill="1" layer="-1.00" shape="1850.30,876.78 1839.75,905.12 1839.79,909.06 1841.30,912.09 1843.49,913.63 1844.98,914.51 1848.23,914.47 1873.57,903.68 1875.53,902.58 1876.70,900.60 1876.48,898.73 1872.07,892.39 1865.79,886.15 1860.02,881.50 1855.45,878.49 1852.18,876.47 1850.30,876.78"/>
    <poly id="420524090" type="building" color="255,230,230" fill="1" layer="-1.00" shape="1811.77,871.58 1817.96,897.58 1819.76,900.22 1821.55,901.18 1823.63,901.06 1825.59,900.06 1826.16,898.37 1834.99,875.27 1835.37,873.40 1834.96,872.02 1834.26,871.24 1832.08,870.38 1825.56,869.27 1819.74,869.04 1814.41,869.28 1813.13,869.89 1811.77,871.58"/>
    <poly id="420524091" type="building" color="255,230,230" fill="1" layer="-1.00" shape="1770.13,898.97 1792.56,911.52 1796.22,912.08 1799.07,911.65 1801.33,910.44 1802.69,909.15 1804.15,907.17 1804.33,904.91 1797.12,876.75 1796.12,875.38 1794.25,875.50 1786.59,879.31 1780.91,883.02 1775.24,887.89 1769.97,893.36 1769.11,895.34 1768.73,897.01 1770.13,898.97"/>
    <poly id="420524092" type="building" color="255,230,230" fill="1" layer="-1.00" shape="1776.90,980.00 1793.14,957.70 1794.01,955.13 1793.79,953.27 1793.17,950.81 1791.96,948.36 1790.86,946.81 1789.37,945.93 1760.38,947.42 1758.51,948.13 1757.84,949.71 1759.49,956.47 1763.22,964.02 1766.24,970.28 1769.85,975.55 1772.55,979.16 1774.93,980.31 1776.90,980.00"/>
    <poly id="420524093" type="building" color="255,230,230" fill="1" layer="-1.00" shape="1814.27,831.84 1825.72,833.68 1830.07,834.38 1842.61,831.30 1853.33,824.14 1860.95,813.75 1864.55,801.40 1863.68,788.55 1858.47,776.78 1849.53,767.49 1837.95,761.82 1827.49,760.69 1825.12,760.43 1812.59,763.51 1801.87,770.67 1794.25,781.06 1789.99,790.72 1788.48,797.72 1783.75,798.36 1785.45,810.15 1788.68,818.68 1796.85,829.64 1811.50,838.27 1814.27,831.84"/>
    <poly id="420524094" type="building" color="255,230,230" fill="1" layer="-1.00" shape="1841.29,945.05 1898.13,957.28 1901.54,934.97 1899.46,916.38 1893.14,898.78 1882.91,883.10 1869.35,870.19 1853.15,860.76 1835.21,855.31 1822.33,854.49 1816.50,854.13 1798.01,857.28 1780.74,864.59 1765.65,875.69 1753.51,889.95 1745.01,906.61 1740.59,924.79 1740.49,943.49 1744.72,961.71 1753.05,978.47 1765.03,992.85 1778.23,1002.92 1811.21,955.96 1820.96,957.43 1827.36,956.35 1833.10,953.71 1836.87,949.96 1841.29,945.05"/>
    <poly id="420524095" type="building" color="255,230,230" fill="1" layer="-1.00" shape="1743.70,773.12 1749.57,771.48 1753.01,766.45 1752.41,760.41 1748.05,756.15 1741.97,755.70 1737.02,759.25 1735.51,765.14 1738.15,770.61 1743.70,773.12"/>
    <poly id="420528564" type="building" color="255,230,230" fill="1" layer="-1.00" shape="1631.89,780.30 1637.71,813.54 1671.00,807.74 1665.19,774.51 1631.89,780.30"/>
    <poly id="420528565" type="building" color="255,230,230" fill="1" layer="-1.00" shape="1640.52,924.56 1678.16,917.98 1661.89,825.50 1689.76,820.64 1676.45,744.90 1632.60,752.59 1610.96,756.33 1640.52,924.56"/>
    <poly id="420540178" type="building" color="255,230,230" fill="1" layer="-1.00" shape="1637.74,771.34 1656.71,768.29 1655.05,758.05 1636.09,761.09 1637.74,771.34"/>
    <poly id="420878622" type="commercial" color="209,209,204" fill="1" layer="-3.00" shape="1711.40,965.52 1555.38,992.72 1518.26,774.49 1676.45,744.90 1711.40,965.52"/>
    <poly id="423684628" type="water" color="181,209,209" fill="1" layer="-4.00" shape="1792.44,1030.39 1856.24,1045.37 1877.05,1050.82 1894.35,1059.41 1897.34,1079.61 1901.89,1081.20 1907.01,1080.46 1912.13,1079.41 1915.52,1076.73 1909.75,1041.46 1797.68,1014.54 1792.44,1030.39"/>
    <poly id="443947094" type="water" color="181,209,209" fill="1" layer="-4.00" shape="1753.32,1028.73 1760.84,1021.37 1764.62,1024.68 1773.96,1030.08 1779.01,1032.20 1784.55,1033.52 1803.84,1038.63 1802.66,1048.18 1777.58,1046.97 1763.21,1039.75 1753.32,1028.73"/>
    <poly id="449717732" type="building" color="255,230,230" fill="1" layer="-1.00" shape="2632.90,285.55 2628.16,201.74 2555.25,205.85 2558.74,267.41 2560.00,289.65 2632.90,285.55"/>
    <poly id="510435203" type="landuse" color="194,194,130" fill="1" layer="-3.00" shape="1911.65,380.70 1907.27,382.62 1912.12,401.13 1919.01,406.42 2025.88,388.48 2029.92,384.67 2031.92,381.03 2029.25,360.86 1911.65,380.70"/>
    <poly id="525187036" type="landuse" color="194,194,130" fill="1" layer="-3.00" shape="2137.45,395.30 1469.61,518.96 1511.54,733.11 1743.57,694.48 1720.58,585.22 2155.08,514.50 2137.45,395.30"/>
    <poly id="545013019" type="building" color="255,230,230" fill="1" layer="-1.00" shape="2216.56,452.31 2262.17,412.58 2288.18,443.80 2277.52,451.40 2260.60,432.34 2224.05,461.29 2216.56,452.31"/>