[General]
cmdenv-express-mode = true
cmdenv-autoflush = true
cmdenv-status-frequency = 1s
simtime-resolution = ps
**.cmdenv-log-level = info

ned-path = .
image-path = ../../images

network = IRTSystemXScenario

##########################################################
#            Simulation parameters                       #
##########################################################
debug-on-errors = true
print-undisposed = false

sim-time-limit = 1h

**.scalar-recording = true
**.vector-recording = true

**.debug = false
**.coreDebug = false

*.playgroundSizeX = 3900m
*.playgroundSizeY = 1700m
*.playgroundSizeZ = 50m

##########################################################
# Annotation parameters                                  #
##########################################################
*.annotations.draw = true

##########################################################
# Obstacle parameters                                    #
##########################################################
*.obstacles.debug = false
*.obstacles.obstacles = xmldoc("config.xml", "//AnalogueModel[@type='SimpleObstacleShadowing']/obstacles")

##########################################################
#            TraCIScenarioManager parameters             #
##########################################################
*.manager.updateInterval = 0.1s
*.manager.host = "localhost"
*.manager.port = 9999
*.manager.autoShutdown = true
*.manager.launchConfig = xmldoc("IRTSystemX.launchd.xml")

##########################################################
#            11p specific parameters                     #
#                                                        #
#                    NIC-Settings                        #
##########################################################
*.connectionManager.sendDirect = true
*.connectionManager.maxInterfDist = 2600m
*.connectionManager.drawMaxIntfDist = false

*.**.nic.mac1609_4.useServiceChannel = false

*.**.nic.mac1609_4.txPower = 20mW
*.**.nic.mac1609_4.bitrate = 6Mbps
*.**.nic.phy80211p.sensitivity = -89dBm

*.**.nic.phy80211p.useThermalNoise = true
*.**.nic.phy80211p.thermalNoise = -110dBm

*.**.nic.phy80211p.decider = xmldoc("config.xml")
*.**.nic.phy80211p.analogueModels = xmldoc("config.xml")
*.**.nic.phy80211p.usePropagationDelay = true

*.**.nic.phy80211p.antenna = xmldoc("antenna.xml", "/root/Antenna[@id='monopole']")

##########################################################
#                    WaveAppLayer                        #
##########################################################
#*.node[*].applType = "TraCIDemo11p"
#*.node[*].appl.headerLength = 80 bit
#*.node[*].appl.sendBeacons = true
#*.node[*].appl.dataOnSch = false
#*.node[*].appl.beaconInterval = 1s

##########################################################
#                    WaveAppLayer MOD                    #
##########################################################
*.node[*].applType = "JosephVeinsApp"
*.node[*].appl.headerLength = 80 bit
*.node[*].appl.sendBeacons = true
*.node[*].appl.dataOnSch = false
*.node[*].appl.beaconInterval = 1s


##########################################################
#                    JosephVeinsApp MOD                  #
##########################################################
*.node[*].appl.helloWorld = "testInput"

##########################################################
#                      Mobility                          #
##########################################################
*.node[*].veinsmobilityType.debug = true
*.node[*].veinsmobility.x = 0
*.node[*].veinsmobility.y = 0
*.node[*].veinsmobility.z = 1.895

#*.node[*0].veinsmobility.accidentCount = 0
#*.node[*0].veinsmobility.accidentStart = 75s
#*.node[*0].veinsmobility.accidentDuration = 50s

[Config WithoutChannelSwitching]

[Config WithChannelSwitching]
*.**.nic.mac1609_4.useServiceChannel = true
*.node[*].appl.dataOnSch = true

